96

Bi 7.593436 5.772148 12.602490
Bi 7.593436 13.516048 12.602490
Bi 5.772148 7.894364 15.541010
Bi 5.843702 11.766314 15.416840
Bi 5.772148 15.638264 15.541010
Bi 5.843702 19.510214 15.416840
Bi 15.337336 5.772148 12.602490
Bi 9.715652 7.593436 15.541010
Bi 11.465386 5.843702 12.726660
Bi 7.894364 9.715652 12.602490
Bi 15.337336 13.516048 12.602490
Bi 9.715652 15.337336 15.541010
Bi 13.516048 7.894364 15.541010
Bi 11.465386 13.587602 12.726660
Bi 11.766314 9.644098 12.726660
Bi 9.644098 11.465386 15.416840
Bi 13.587602 11.766314 15.416840
Bi 7.894364 17.459552 12.602490
Bi 13.516048 15.638264 15.541010
Bi 11.766314 17.387998 12.726660
Bi 9.644098 19.209286 15.416840
Bi 13.587602 19.510214 15.416840
Bi 17.459552 7.593436 15.541010
Bi 19.209286 5.843702 12.726660
Bi 15.638264 9.715652 12.602490
Bi 17.459552 15.337336 15.541010
Bi 19.209286 13.587602 12.726660
Bi 19.510214 9.644098 12.726660
Bi 17.387998 11.465386 15.416840
Bi 15.638264 17.459552 12.602490
Bi 19.510214 17.387998 12.726660
Bi 17.387998 19.209286 15.416840
Bi 5.772148 15.638264 4.283610
Bi 5.843702 19.510214 4.159440
Bi 5.772148 15.638264 9.912310
Bi 5.843702 19.510214 9.788140
Bi 7.894364 17.459552 1.345090
Bi 13.516048 15.638264 4.283610
Bi 11.766314 17.387998 1.469260
Bi 9.644098 19.209286 4.159440
Bi 13.587602 19.510214 4.159440
Bi 7.894364 17.459552 6.973790
Bi 13.516048 15.638264 9.912310
Bi 11.766314 17.387998 7.097960
Bi 9.644098 19.209286 9.788140
Bi 13.587602 19.510214 9.788140
Bi 15.638264 17.459552 1.345090
Bi 19.510214 17.387998 1.469260
Bi 17.387998 19.209286 4.159440
Bi 15.638264 17.459552 6.973790
Bi 19.510214 17.387998 7.097960
Bi 17.387998 19.209286 9.788140
Bi 17.459552 7.593436 4.283610
Bi 19.209286 5.843702 1.469260
Bi 17.459552 7.593436 9.912310
Bi 19.209286 5.843702 7.097960
Bi 15.638264 9.715652 1.345090
Bi 17.459552 15.337336 4.283610
Bi 19.209286 13.587602 1.469260
Bi 19.510214 9.644098 1.469260
Bi 17.387998 11.465386 4.159440
Bi 15.638264 9.715652 6.973790
Bi 17.459552 15.337336 9.912310
Bi 19.209286 13.587602 7.097960
Bi 19.510214 9.644098 7.097960
Bi 17.387998 11.465386 9.788140
Bi 7.593436 5.772148 1.345090
Bi 7.593436 5.772148 6.973790
Bi 7.593436 13.516048 1.345090
Bi 5.772148 7.894364 4.283610
Bi 5.843702 11.766314 4.159440
Bi 7.593436 13.516048 6.973790
Bi 5.772148 7.894364 9.912310
Bi 5.843702 11.766314 9.788140
Bi 15.337336 5.772148 1.345090
Bi 9.715652 7.593436 4.283610
Bi 11.465386 5.843702 1.469260
Bi 15.337336 5.772148 6.973790
Bi 9.715652 7.593436 9.912310
Bi 11.465386 5.843702 7.097960
Bi 7.894364 9.715652 1.345090
Bi 15.337336 13.516048 1.345090
Bi 9.715652 15.337336 4.283610
Bi 13.516048 7.894364 4.283610
Bi 11.465386 13.587602 1.469260
Bi 11.766314 9.644098 1.469260
Bi 9.644098 11.465386 4.159440
Bi 13.587602 11.766314 4.159440
Bi 7.894364 9.715652 6.973790
Bi 15.337336 13.516048 6.973790
Bi 9.715652 15.337336 9.912310
Bi 13.516048 7.894364 9.912310
Bi 11.465386 13.587602 7.097960
Bi 11.766314 9.644098 7.097960
Bi 9.644098 11.465386 9.788140
Bi 13.587602 11.766314 9.788140
