132

C 0.728398 2.297999 2.560075
C 8.297602 6.785001 2.560075
C 8.297602 2.297999 12.516925
C 0.728398 6.785001 12.516925
C 8.297602 6.785001 12.516925
C 0.728398 2.297999 12.516925
C 0.728398 6.785001 2.560075
C 8.297602 2.297999 2.560075
C 5.241398 6.839499 10.098575
C 3.784602 2.243501 10.098575
C 3.784602 6.839499 4.978425
C 5.241398 2.243501 4.978425
C 3.784602 2.243501 4.978425
C 5.241398 6.839499 4.978425
C 5.241398 2.243501 10.098575
C 3.784602 6.839499 10.098575
C 1.180601 3.044622 1.444377
C 7.845399 6.038378 1.444377
C 7.845399 3.044622 13.632623
C 1.180601 6.038378 13.632623
C 7.845399 6.038378 13.632623
C 1.180601 3.044622 13.632623
C 1.180601 6.038378 1.444377
C 7.845399 3.044622 1.444377
C 5.693601 7.586122 8.982877
C 3.332399 1.496878 8.982877
C 3.332399 7.586122 6.094123
C 5.693601 1.496878 6.094123
C 3.332399 1.496878 6.094123
C 5.693601 7.586122 6.094123
C 5.693601 1.496878 8.982877
C 3.332399 7.586122 8.982877
C 1.419790 1.166257 2.974692
C 7.606210 7.916743 2.974692
C 7.606210 1.166257 12.102308
C 1.419790 7.916743 12.102308
C 7.606210 7.916743 12.102308
C 1.419790 1.166257 12.102308
C 1.419790 7.916743 2.974692
C 7.606210 1.166257 2.974692
C 5.932790 5.707757 10.513192
C 3.093210 3.375243 10.513192
C 3.093210 5.707757 4.563808
C 5.932790 3.375243 4.563808
C 3.093210 3.375243 4.563808
C 5.932790 5.707757 4.563808
C 5.932790 3.375243 10.513192
C 3.093210 5.707757 10.513192
C 2.272747 2.593197 0.728219
C 6.753253 6.489804 0.728219
C 6.753253 2.593197 14.348781
C 2.272747 6.489804 14.348781
C 6.753253 6.489804 14.348781
C 2.272747 2.593197 14.348781
C 2.272747 6.489804 0.728219
C 6.753253 2.593197 0.728219
C 6.785747 7.134697 8.266719
C 2.240253 1.948304 8.266719
C 2.240253 7.134697 6.810281
C 6.785747 1.948304 6.810281
C 2.240253 1.948304 6.810281
C 6.785747 7.134697 6.810281
C 6.785747 1.948304 8.266719
C 2.240253 7.134697 8.266719
C 2.586852 0.735723 2.261550
C 6.439148 8.347277 2.261550
C 6.439148 0.735723 12.815450
C 2.586852 8.347277 12.815450
C 6.439148 8.347277 12.815450
C 2.586852 0.735723 12.815450
C 2.586852 8.347277 2.261550
C 6.439148 0.735723 2.261550
C 7.099852 5.277223 9.800050
C 1.926148 3.805777 9.800050
C 1.926148 5.277223 5.276950
C 7.099852 3.805777 5.276950
C 1.926148 3.805777 5.276950
C 7.099852 5.277223 5.276950
C 7.099852 3.805777 9.800050
C 1.926148 5.277223 9.800050
C 3.011074 1.446014 1.174498
C 6.014926 7.636986 1.174498
C 6.014926 1.446014 13.902502
C 3.011074 7.636986 13.902502
C 6.014926 7.636986 13.902502
C 3.011074 1.446014 13.902502
C 3.011074 7.636986 1.174498
C 6.014926 1.446014 1.174498
C 7.524074 5.987514 8.712998
C 1.501926 3.095486 8.712998
C 1.501926 5.987514 6.364002
C 7.524074 3.095486 6.364002
C 1.501926 3.095486 6.364002
C 7.524074 5.987514 6.364002
C 7.524074 3.095486 8.712998
C 1.501926 5.987514 8.712998
C 3.710589 0.792946 0.000000
C 5.315411 8.290054 0.000000
C 5.315411 0.792946 0.000000
C 3.710589 8.290054 0.000000
C 8.223589 5.334446 7.538500
C 0.802411 3.748554 7.538500
C 0.802411 5.334446 7.538500
C 8.223589 3.748554 7.538500
C 0.683268 0.000000 3.420971
C 8.342732 0.000000 3.420971
C 8.342732 0.000000 11.656029
C 0.683268 0.000000 11.656029
C 5.196268 4.541500 10.959471
C 3.829732 4.541500 10.959471
C 3.829732 4.541500 4.117529
C 5.196268 4.541500 4.117529
C 0.000000 3.754004 0.780989
C 0.000000 5.328996 0.780989
C 0.000000 3.754004 14.296011
C 0.000000 5.328996 14.296011
C 4.513000 8.295504 8.319489
C 4.513000 0.787496 8.319489
C 4.513000 8.295504 6.757511
C 4.513000 0.787496 6.757511
C 3.710589 0.792946 15.077000
C 5.315411 8.290054 15.077000
C 5.315411 0.792946 15.077000
C 3.710589 8.290054 15.077000
C 0.683268 9.083000 3.420971
C 8.342732 9.083000 3.420971
C 8.342732 9.083000 11.656029
C 0.683268 9.083000 11.656029
C 9.026000 3.754004 0.780989
C 9.026000 5.328996 0.780989
C 9.026000 3.754004 14.296011
C 9.026000 5.328996 14.296011
