456

Fe 5.170552 5.170552 16.644000
Fe 1.167544 1.167544 16.644000
Fe 5.170552 13.510152 16.644000
Fe 1.167544 9.507144 16.644000
Fe 13.510152 5.170552 16.644000
Fe 9.507144 1.167544 16.644000
Fe 13.510152 13.510152 16.644000
Fe 9.507144 9.507144 16.644000
Fe 6.204662 8.306242 0.998640
Fe 2.134938 0.033358 5.159640
Fe 4.203158 2.034862 7.240140
Fe 4.136442 6.304738 3.079140
Fe 6.304738 4.136442 5.242860
Fe 2.034862 4.203158 1.081860
Fe 8.306242 6.204662 7.323360
Fe 0.033358 2.134938 3.162360
Fe 5.170552 5.170552 0.000000
Fe 3.169048 3.169048 4.161000
Fe 7.338848 1.000752 6.241500
Fe 1.000752 7.338848 2.080500
Fe 3.035614 7.230433 8.188848
Fe 5.303986 1.109167 4.027848
Fe 5.278967 7.205414 6.108348
Fe 3.060633 1.134186 1.947348
Fe 1.134186 3.060633 6.374652
Fe 7.205414 5.278967 2.213652
Fe 7.230433 3.035614 0.133152
Fe 1.109167 5.303986 4.294152
Fe 1.167544 1.167544 0.000000
Fe 7.172056 7.172056 4.161000
Fe 3.002256 5.337344 6.241500
Fe 5.337344 3.002256 2.080500
Fe 6.204662 8.306242 9.320640
Fe 2.134938 0.033358 13.481640
Fe 4.203158 2.034862 15.562140
Fe 4.136442 6.304738 11.401140
Fe 6.304738 4.136442 13.564860
Fe 2.034862 4.203158 9.403860
Fe 8.306242 6.204662 15.645360
Fe 0.033358 2.134938 11.484360
Fe 5.170552 5.170552 8.322000
Fe 3.169048 3.169048 12.483000
Fe 7.338848 1.000752 14.563500
Fe 1.000752 7.338848 10.402500
Fe 3.035614 7.230433 16.510848
Fe 5.303986 1.109167 12.349848
Fe 5.278967 7.205414 14.430348
Fe 3.060633 1.134186 10.269348
Fe 1.134186 3.060633 14.696652
Fe 7.205414 5.278967 10.535652
Fe 7.230433 3.035614 8.455152
Fe 1.109167 5.303986 12.616152
Fe 1.167544 1.167544 8.322000
Fe 7.172056 7.172056 12.483000
Fe 3.002256 5.337344 14.563500
Fe 5.337344 3.002256 10.402500
Fe 6.204662 16.645842 0.998640
Fe 2.134938 8.372958 5.159640
Fe 4.203158 10.374462 7.240140
Fe 4.136442 14.644338 3.079140
Fe 6.304738 12.476042 5.242860
Fe 2.034862 12.542758 1.081860
Fe 8.306242 14.544262 7.323360
Fe 0.033358 10.474538 3.162360
Fe 5.170552 13.510152 0.000000
Fe 3.169048 11.508648 4.161000
Fe 7.338848 9.340352 6.241500
Fe 1.000752 15.678448 2.080500
Fe 3.035614 15.570033 8.188848
Fe 5.303986 9.448767 4.027848
Fe 5.278967 15.545014 6.108348
Fe 3.060633 9.473786 1.947348
Fe 1.134186 11.400233 6.374652
Fe 7.205414 13.618567 2.213652
Fe 7.230433 11.375214 0.133152
Fe 1.109167 13.643586 4.294152
Fe 1.167544 9.507144 0.000000
Fe 7.172056 15.511656 4.161000
Fe 3.002256 13.676944 6.241500
Fe 5.337344 11.341856 2.080500
Fe 6.204662 16.645842 9.320640
Fe 2.134938 8.372958 13.481640
Fe 4.203158 10.374462 15.562140
Fe 4.136442 14.644338 11.401140
Fe 6.304738 12.476042 13.564860
Fe 2.034862 12.542758 9.403860
Fe 8.306242 14.544262 15.645360
Fe 0.033358 10.474538 11.484360
Fe 5.170552 13.510152 8.322000
Fe 3.169048 11.508648 12.483000
Fe 7.338848 9.340352 14.563500
Fe 1.000752 15.678448 10.402500
Fe 3.035614 15.570033 16.510848
Fe 5.303986 9.448767 12.349848
Fe 5.278967 15.545014 14.430348
Fe 3.060633 9.473786 10.269348
Fe 1.134186 11.400233 14.696652
Fe 7.205414 13.618567 10.535652
Fe 7.230433 11.375214 8.455152
Fe 1.109167 13.643586 12.616152
Fe 1.167544 9.507144 8.322000
Fe 7.172056 15.511656 12.483000
Fe 3.002256 13.676944 14.563500
Fe 5.337344 11.341856 10.402500
Fe 14.544262 8.306242 0.998640
Fe 10.474538 0.033358 5.159640
Fe 12.542758 2.034862 7.240140
Fe 12.476042 6.304738 3.079140
Fe 14.644338 4.136442 5.242860
Fe 10.374462 4.203158 1.081860
Fe 16.645842 6.204662 7.323360
Fe 8.372958 2.134938 3.162360
Fe 13.510152 5.170552 0.000000
Fe 11.508648 3.169048 4.161000
Fe 15.678448 1.000752 6.241500
Fe 9.340352 7.338848 2.080500
Fe 11.375214 7.230433 8.188848
Fe 13.643586 1.109167 4.027848
Fe 13.618567 7.205414 6.108348
Fe 11.400233 1.134186 1.947348
Fe 9.473786 3.060633 6.374652
Fe 15.545014 5.278967 2.213652
Fe 15.570033 3.035614 0.133152
Fe 9.448767 5.303986 4.294152
Fe 9.507144 1.167544 0.000000
Fe 15.511656 7.172056 4.161000
Fe 11.341856 5.337344 6.241500
Fe 13.676944 3.002256 2.080500
Fe 14.544262 8.306242 9.320640
Fe 10.474538 0.033358 13.481640
Fe 12.542758 2.034862 15.562140
Fe 12.476042 6.304738 11.401140
Fe 14.644338 4.136442 13.564860
Fe 10.374462 4.203158 9.403860
Fe 16.645842 6.204662 15.645360
Fe 8.372958 2.134938 11.484360
Fe 13.510152 5.170552 8.322000
Fe 11.508648 3.169048 12.483000
Fe 15.678448 1.000752 14.563500
Fe 9.340352 7.338848 10.402500
Fe 11.375214 7.230433 16.510848
Fe 13.643586 1.109167 12.349848
Fe 13.618567 7.205414 14.430348
Fe 11.400233 1.134186 10.269348
Fe 9.473786 3.060633 14.696652
Fe 15.545014 5.278967 10.535652
Fe 15.570033 3.035614 8.455152
Fe 9.448767 5.303986 12.616152
Fe 9.507144 1.167544 8.322000
Fe 15.511656 7.172056 12.483000
Fe 11.341856 5.337344 14.563500
Fe 13.676944 3.002256 10.402500
Fe 14.544262 16.645842 0.998640
Fe 10.474538 8.372958 5.159640
Fe 12.542758 10.374462 7.240140
Fe 12.476042 14.644338 3.079140
Fe 14.644338 12.476042 5.242860
Fe 10.374462 12.542758 1.081860
Fe 16.645842 14.544262 7.323360
Fe 8.372958 10.474538 3.162360
Fe 13.510152 13.510152 0.000000
Fe 11.508648 11.508648 4.161000
Fe 15.678448 9.340352 6.241500
Fe 9.340352 15.678448 2.080500
Fe 11.375214 15.570033 8.188848
Fe 13.643586 9.448767 4.027848
Fe 13.618567 15.545014 6.108348
Fe 11.400233 9.473786 1.947348
Fe 9.473786 11.400233 6.374652
Fe 15.545014 13.618567 2.213652
Fe 15.570033 11.375214 0.133152
Fe 9.448767 13.643586 4.294152
Fe 9.507144 9.507144 0.000000
Fe 15.511656 15.511656 4.161000
Fe 11.341856 13.676944 6.241500
Fe 13.676944 11.341856 2.080500
Fe 14.544262 16.645842 9.320640
Fe 10.474538 8.372958 13.481640
Fe 12.542758 10.374462 15.562140
Fe 12.476042 14.644338 11.401140
Fe 14.644338 12.476042 13.564860
Fe 10.374462 12.542758 9.403860
Fe 16.645842 14.544262 15.645360
Fe 8.372958 10.474538 11.484360
Fe 13.510152 13.510152 8.322000
Fe 11.508648 11.508648 12.483000
Fe 15.678448 9.340352 14.563500
Fe 9.340352 15.678448 10.402500
Fe 11.375214 15.570033 16.510848
Fe 13.643586 9.448767 12.349848
Fe 13.618567 15.545014 14.430348
Fe 11.400233 9.473786 10.269348
Fe 9.473786 11.400233 14.696652
Fe 15.545014 13.618567 10.535652
Fe 15.570033 11.375214 8.455152
Fe 9.448767 13.643586 12.616152
Fe 9.507144 9.507144 8.322000
Fe 15.511656 15.511656 12.483000
Fe 11.341856 13.676944 14.563500
Fe 13.676944 11.341856 10.402500
O 5.128854 7.247112 8.205492
O 3.210746 1.092488 4.044492
O 5.262288 0.959054 6.124992
O 3.077312 7.380546 1.963992
O 7.380546 3.077312 6.358008
O 0.959054 5.262288 2.197008
O 7.247112 5.128854 0.116508
O 1.092488 3.210746 4.277508
O 0.992412 3.144029 8.280390
O 7.347188 5.195571 4.119390
O 1.025771 5.162212 6.199890
O 7.313829 3.177388 2.038890
O 3.177388 7.313829 6.283110
O 5.162212 1.025771 2.122110
O 3.144029 0.992412 0.041610
O 5.195571 7.347188 4.202610
O 1.142525 7.180396 0.058254
O 7.197075 1.159204 4.219254
O 5.329004 5.312325 6.299754
O 3.010596 3.027275 2.138754
O 3.027275 3.010596 6.183246
O 5.312325 5.329004 2.022246
O 7.180396 1.142525 8.263746
O 1.159204 7.197075 4.102746
O 3.194067 5.262288 8.297034
O 5.145533 3.077312 4.136034
O 7.247112 7.363867 6.216534
O 1.092488 0.975733 2.055534
O 0.975733 1.092488 6.266466
O 7.363867 7.247112 2.105466
O 5.262288 3.194067 0.024966
O 3.077312 5.145533 4.185966
O 5.128854 7.247112 16.527492
O 3.210746 1.092488 12.366492
O 5.262288 0.959054 14.446992
O 3.077312 7.380546 10.285992
O 7.380546 3.077312 14.680008
O 0.959054 5.262288 10.519008
O 7.247112 5.128854 8.438508
O 1.092488 3.210746 12.599508
O 0.992412 3.144029 16.602390
O 7.347188 5.195571 12.441390
O 1.025771 5.162212 14.521890
O 7.313829 3.177388 10.360890
O 3.177388 7.313829 14.605110
O 5.162212 1.025771 10.444110
O 3.144029 0.992412 8.363610
O 5.195571 7.347188 12.524610
O 1.142525 7.180396 8.380254
O 7.197075 1.159204 12.541254
O 5.329004 5.312325 14.621754
O 3.010596 3.027275 10.460754
O 3.027275 3.010596 14.505246
O 5.312325 5.329004 10.344246
O 7.180396 1.142525 16.585746
O 1.159204 7.197075 12.424746
O 3.194067 5.262288 16.619034
O 5.145533 3.077312 12.458034
O 7.247112 7.363867 14.538534
O 1.092488 0.975733 10.377534
O 0.975733 1.092488 14.588466
O 7.363867 7.247112 10.427466
O 5.262288 3.194067 8.346966
O 3.077312 5.145533 12.507966
O 5.128854 15.586712 8.205492
O 3.210746 9.432088 4.044492
O 5.262288 9.298654 6.124992
O 3.077312 15.720146 1.963992
O 7.380546 11.416912 6.358008
O 0.959054 13.601888 2.197008
O 7.247112 13.468454 0.116508
O 1.092488 11.550346 4.277508
O 0.992412 11.483629 8.280390
O 7.347188 13.535171 4.119390
O 1.025771 13.501812 6.199890
O 7.313829 11.516988 2.038890
O 3.177388 15.653429 6.283110
O 5.162212 9.365371 2.122110
O 3.144029 9.332012 0.041610
O 5.195571 15.686788 4.202610
O 1.142525 15.519996 0.058254
O 7.197075 9.498804 4.219254
O 5.329004 13.651925 6.299754
O 3.010596 11.366875 2.138754
O 3.027275 11.350196 6.183246
O 5.312325 13.668604 2.022246
O 7.180396 9.482125 8.263746
O 1.159204 15.536675 4.102746
O 3.194067 13.601888 8.297034
O 5.145533 11.416912 4.136034
O 7.247112 15.703467 6.216534
O 1.092488 9.315333 2.055534
O 0.975733 9.432088 6.266466
O 7.363867 15.586712 2.105466
O 5.262288 11.533667 0.024966
O 3.077312 13.485133 4.185966
O 5.128854 15.586712 16.527492
O 3.210746 9.432088 12.366492
O 5.262288 9.298654 14.446992
O 3.077312 15.720146 10.285992
O 7.380546 11.416912 14.680008
O 0.959054 13.601888 10.519008
O 7.247112 13.468454 8.438508
O 1.092488 11.550346 12.599508
O 0.992412 11.483629 16.602390
O 7.347188 13.535171 12.441390
O 1.025771 13.501812 14.521890
O 7.313829 11.516988 10.360890
O 3.177388 15.653429 14.605110
O 5.162212 9.365371 10.444110
O 3.144029 9.332012 8.363610
O 5.195571 15.686788 12.524610
O 1.142525 15.519996 8.380254
O 7.197075 9.498804 12.541254
O 5.329004 13.651925 14.621754
O 3.010596 11.366875 10.460754
O 3.027275 11.350196 14.505246
O 5.312325 13.668604 10.344246
O 7.180396 9.482125 16.585746
O 1.159204 15.536675 12.424746
O 3.194067 13.601888 16.619034
O 5.145533 11.416912 12.458034
O 7.247112 15.703467 14.538534
O 1.092488 9.315333 10.377534
O 0.975733 9.432088 14.588466
O 7.363867 15.586712 10.427466
O 5.262288 11.533667 8.346966
O 3.077312 13.485133 12.507966
O 13.468454 7.247112 8.205492
O 11.550346 1.092488 4.044492
O 13.601888 0.959054 6.124992
O 11.416912 7.380546 1.963992
O 15.720146 3.077312 6.358008
O 9.298654 5.262288 2.197008
O 15.586712 5.128854 0.116508
O 9.432088 3.210746 4.277508
O 9.332012 3.144029 8.280390
O 15.686788 5.195571 4.119390
O 9.365371 5.162212 6.199890
O 15.653429 3.177388 2.038890
O 11.516988 7.313829 6.283110
O 13.501812 1.025771 2.122110
O 11.483629 0.992412 0.041610
O 13.535171 7.347188 4.202610
O 9.482125 7.180396 0.058254
O 15.536675 1.159204 4.219254
O 13.668604 5.312325 6.299754
O 11.350196 3.027275 2.138754
O 11.366875 3.010596 6.183246
O 13.651925 5.329004 2.022246
O 15.519996 1.142525 8.263746
O 9.498804 7.197075 4.102746
O 11.533667 5.262288 8.297034
O 13.485133 3.077312 4.136034
O 15.586712 7.363867 6.216534
O 9.432088 0.975733 2.055534
O 9.315333 1.092488 6.266466
O 15.703467 7.247112 2.105466
O 13.601888 3.194067 0.024966
O 11.416912 5.145533 4.185966
O 13.468454 7.247112 16.527492
O 11.550346 1.092488 12.366492
O 13.601888 0.959054 14.446992
O 11.416912 7.380546 10.285992
O 15.720146 3.077312 14.680008
O 9.298654 5.262288 10.519008
O 15.586712 5.128854 8.438508
O 9.432088 3.210746 12.599508
O 9.332012 3.144029 16.602390
O 15.686788 5.195571 12.441390
O 9.365371 5.162212 14.521890
O 15.653429 3.177388 10.360890
O 11.516988 7.313829 14.605110
O 13.501812 1.025771 10.444110
O 11.483629 0.992412 8.363610
O 13.535171 7.347188 12.524610
O 9.482125 7.180396 8.380254
O 15.536675 1.159204 12.541254
O 13.668604 5.312325 14.621754
O 11.350196 3.027275 10.460754
O 11.366875 3.010596 14.505246
O 13.651925 5.329004 10.344246
O 15.519996 1.142525 16.585746
O 9.498804 7.197075 12.424746
O 11.533667 5.262288 16.619034
O 13.485133 3.077312 12.458034
O 15.586712 7.363867 14.538534
O 9.432088 0.975733 10.377534
O 9.315333 1.092488 14.588466
O 15.703467 7.247112 10.427466
O 13.601888 3.194067 8.346966
O 11.416912 5.145533 12.507966
O 13.468454 15.586712 8.205492
O 11.550346 9.432088 4.044492
O 13.601888 9.298654 6.124992
O 11.416912 15.720146 1.963992
O 15.720146 11.416912 6.358008
O 9.298654 13.601888 2.197008
O 15.586712 13.468454 0.116508
O 9.432088 11.550346 4.277508
O 9.332012 11.483629 8.280390
O 15.686788 13.535171 4.119390
O 9.365371 13.501812 6.199890
O 15.653429 11.516988 2.038890
O 11.516988 15.653429 6.283110
O 13.501812 9.365371 2.122110
O 11.483629 9.332012 0.041610
O 13.535171 15.686788 4.202610
O 9.482125 15.519996 0.058254
O 15.536675 9.498804 4.219254
O 13.668604 13.651925 6.299754
O 11.350196 11.366875 2.138754
O 11.366875 11.350196 6.183246
O 13.651925 13.668604 2.022246
O 15.519996 9.482125 8.263746
O 9.498804 15.536675 4.102746
O 11.533667 13.601888 8.297034
O 13.485133 11.416912 4.136034
O 15.586712 15.703467 6.216534
O 9.432088 9.315333 2.055534
O 9.315333 9.432088 6.266466
O 15.703467 15.586712 2.105466
O 13.601888 11.533667 0.024966
O 11.416912 13.485133 4.185966
O 13.468454 15.586712 16.527492
O 11.550346 9.432088 12.366492
O 13.601888 9.298654 14.446992
O 11.416912 15.720146 10.285992
O 15.720146 11.416912 14.680008
O 9.298654 13.601888 10.519008
O 15.586712 13.468454 8.438508
O 9.432088 11.550346 12.599508
O 9.332012 11.483629 16.602390
O 15.686788 13.535171 12.441390
O 9.365371 13.501812 14.521890
O 15.653429 11.516988 10.360890
O 11.516988 15.653429 14.605110
O 13.501812 9.365371 10.444110
O 11.483629 9.332012 8.363610
O 13.535171 15.686788 12.524610
O 9.482125 15.519996 8.380254
O 15.536675 9.498804 12.541254
O 13.668604 13.651925 14.621754
O 11.350196 11.366875 10.460754
O 11.366875 11.350196 14.505246
O 13.651925 13.668604 10.344246
O 15.519996 9.482125 16.585746
O 9.498804 15.536675 12.424746
O 11.533667 13.601888 16.619034
O 13.485133 11.416912 12.458034
O 15.586712 15.703467 14.538534
O 9.432088 9.315333 10.377534
O 9.315333 9.432088 14.588466
O 15.703467 15.586712 10.427466
O 13.601888 11.533667 8.346966
O 11.416912 13.485133 12.507966
