134

W 3.814978 5.210500 0.729435
W 6.390771 15.631500 14.144845
W 2.292654 3.528551 3.170006
W 7.913095 13.949551 11.704273
W 7.913095 17.313449 11.704273
W 2.292654 6.892449 3.170006
W 6.935386 3.372861 1.404429
W 3.270363 13.793861 13.469850
W 3.270363 17.469139 13.469850
W 6.935386 7.048139 1.404429
W 5.421483 1.687160 3.841283
W 4.784266 12.108160 11.032997
W 4.784266 19.154840 11.032997
W 5.421483 8.733840 3.841283
W 3.736426 3.532927 6.568482
W 6.469323 13.953927 8.305798
W 6.469323 17.309073 8.305798
W 3.736426 6.888073 6.568482
W 8.233281 3.380156 4.465556
W 1.972468 13.801156 10.408723
W 1.972468 17.461844 10.408723
W 8.233281 7.040844 4.465556
W 6.552185 5.210500 7.150364
W 3.653564 15.631500 7.723916
O 0.751371 5.210500 13.934225
O 9.454378 15.631500 0.940054
O 0.971041 2.446851 3.059639
O 9.234708 12.867851 11.814640
O 9.234708 18.395149 11.814640
O 0.971041 7.974149 3.059639
O 4.928359 2.751144 14.846019
O 5.277390 13.172144 0.028261
O 5.277390 18.090856 0.028261
O 4.928359 7.669856 14.846019
O 5.111315 0.010421 3.946146
O 5.094433 10.431421 10.928133
O 5.094433 20.831579 10.928133
O 5.111315 10.410579 3.946146
O 2.869980 2.478114 7.605219
O 7.335769 12.899114 7.269060
O 7.335769 18.363886 7.269060
O 2.869980 7.942886 7.605219
O 9.728405 2.763649 5.028994
O 0.477344 13.184649 9.845286
O 0.477344 18.078351 9.845286
O 9.728405 7.657351 5.028994
O 7.508131 5.210500 8.543786
O 2.697618 15.631500 6.330493
O 2.572097 3.866191 1.289600
O 7.633652 14.287191 13.584680
O 7.633652 16.975809 13.584680
O 2.572097 6.554809 1.289600
O 5.215817 3.918296 0.800236
O 4.989932 14.339296 14.074043
O 4.989932 16.923704 14.074043
O 5.215817 6.502704 0.800236
O 1.337768 5.210500 3.236643
O 8.867981 15.631500 11.637636
O 3.765858 2.340557 3.131036
O 6.439891 12.761557 11.743244
O 6.439891 18.501443 11.743244
O 3.765858 8.080443 3.131036
O 2.570771 3.632761 5.046843
O 7.634978 14.053761 9.827437
O 7.634978 17.209239 9.827437
O 2.570771 6.788239 5.046843
O 7.407627 5.210500 1.298525
O 2.798122 15.631500 13.575755
O 6.174632 1.752812 2.073475
O 4.031117 12.173812 12.800805
O 4.031117 19.089188 12.800805
O 6.174632 8.668188 2.073475
O 8.407778 3.084616 2.600024
O 1.797971 13.505616 12.274256
O 1.797971 17.757384 12.274256
O 8.407778 7.336384 2.600024
O 4.761952 2.319715 5.527282
O 5.443797 12.740715 9.346997
O 5.443797 18.522285 9.346997
O 4.761952 8.101285 5.527282
O 7.219321 1.713212 4.557479
O 2.986428 12.134212 10.316800
O 2.986428 19.128788 10.316800
O 7.219321 8.707788 4.557479
O 2.978618 5.210500 7.170890
O 7.227131 15.631500 7.703389
O 5.242869 3.884949 7.682565
O 4.962880 14.305949 7.191714
O 4.962880 16.957051 7.191714
O 5.242869 6.536051 7.682565
O 8.635161 5.210500 4.218346
O 1.570588 15.631500 10.655934
O 7.437404 3.897454 6.113329
O 2.768345 14.318454 8.760951
O 2.768345 16.944546 8.760951
O 7.437404 6.523546 6.113329
O 3.919460 5.210500 3.038815
O 6.286289 15.631500 11.835464
O 6.165550 3.880780 3.529667
O 4.040199 14.301780 11.344613
O 4.040199 16.961220 11.344613
O 6.165550 6.540220 3.529667
O 4.936594 5.210500 5.482659
O 5.269154 15.631500 9.391620
O 1.970021 0.987911 9.928582
O 8.235727 11.408911 4.945698
O 8.235727 19.854089 4.945698
O 1.970021 9.433089 9.928582
O -0.821658 1.131721 9.726291
O 11.027407 11.552721 5.147988
O 11.027407 19.710279 5.147988
O -0.821658 9.289279 9.726291
O -0.866785 1.440182 4.988833
O 11.072534 11.861182 9.885446
O 11.072534 19.401818 9.885446
O -0.866785 8.980818 4.988833
O 6.188828 2.132137 12.449772
O 4.016921 12.553137 2.424508
O 4.016921 18.709863 2.424508
O 6.188828 8.288863 12.449772
O -0.462790 5.210500 11.430884
O 10.668539 15.631500 3.443396
O 10.759509 3.090869 11.096213
O -0.553761 13.511869 3.778067
O -0.553761 17.751131 3.778067
O 10.759509 7.330131 11.096213
O 1.224885 18.714032 1.918782
O 8.980864 8.293032 12.955498
O 8.980864 2.127968 12.955498
O 1.224885 12.548968 1.918782
O 0.195511 0.268862 1.253902
O 10.010238 10.689862 13.620378
O 10.010238 20.573138 13.620378
O 0.195511 10.152138 1.253902