45

Mo    -26.88537    10.67621   -24.59828
Mo    -20.57956    14.75675   -26.81951
Mo    -21.47310    11.06011   -26.46509
Mo    -25.99183    14.37285   -24.95269
Mo    -24.80564    11.92413   -26.82740
Mo    -22.65929    13.50882   -24.59038
Mo    -23.66470     9.65736   -24.46252
Mo    -23.80023    15.77559   -26.95526
Mo    -26.89883     6.97426   -24.81540
Mo    -20.56610    18.45869   -26.60238
O     -25.24550    10.24673   -26.10464
O     -22.21943    15.18623   -25.31314
O     -27.05938     8.77216   -24.31582
O     -20.40555    16.66079   -27.10196
O     -24.99853    10.38773   -23.50365
O     -22.46640    15.04523   -27.91412
O     -25.99680    12.41856   -25.06841
O     -21.46813    13.01440   -26.34937
O     -27.73433    11.29416   -23.22324
O     -19.73060    14.13879   -28.19454
O     -27.99251    10.78174   -25.88161
O     -19.47241    14.65121   -25.53617
O     -23.10785    11.65799   -25.12213
O     -24.35708    13.77497   -26.29565
O     -20.75969    10.85893   -28.04749
O     -26.70524    14.57402   -23.37029
O     -20.14004    10.82737   -25.40812
O     -27.32489    14.60558   -26.00966
O     -24.10545    13.83073   -23.65140
O     -23.35947    11.60222   -27.76638
O     -22.45851     9.54006   -26.12986
O     -25.00642    15.89290   -25.28792
O     -21.45909    13.22254   -23.42998
O     -26.00584    12.21041   -27.98780
O     -24.15899     8.02864   -24.67744
O     -23.30594    17.40431   -26.74034
O     -22.36077     9.60181   -23.34018
O     -25.10416    15.83115   -28.07760
O     -26.00759     6.09839   -23.63079
O     -21.45734    19.33456   -27.78699
O     -26.22610     6.77221   -26.43630
O     -21.23883    18.66074   -24.98148
O     -28.44097     6.27095   -24.86422
O     -18.05831    17.21987   -24.58566
O     -19.02396    19.16201   -26.55356
