240

Fe   0.000   0.000   1.989
Fe   0.000   0.000   15.737
Fe   0.000   5.035   1.989
Fe   0.000   5.035   15.737
Fe   5.035   0.000   1.989
Fe   5.035   0.000   15.737
Fe   5.035   5.035   1.989
Fe   5.035   5.035   15.737
Fe   0.000   0.000   8.863
Fe   0.000   0.000   22.610
Fe   0.000   5.035   8.863
Fe   0.000   5.035   22.610
Fe   5.035   0.000   8.863
Fe   5.035   0.000   22.610
Fe   5.035   5.035   8.863
Fe   5.035   5.035   22.610
Fe   0.000   0.000   11.758
Fe   0.000   0.000   25.505
Fe   0.000   5.035   11.758
Fe   0.000   5.035   25.505
Fe   5.035   0.000   11.758
Fe   5.035   0.000   25.505
Fe   5.035   5.035   11.758
Fe   5.035   5.035   25.505
Fe   0.000   0.000   4.884
Fe   0.000   0.000   18.631
Fe   0.000   5.035   4.884
Fe   0.000   5.035   18.631
Fe   5.035   0.000   4.884
Fe   5.035   0.000   18.631
Fe   5.035   5.035   4.884
Fe   5.035   5.035   18.631
Fe   3.357   1.678   6.572
Fe   3.357   1.678   20.319
Fe   3.357   6.714   6.572
Fe   3.357   6.714   20.319
Fe   8.392   1.678   6.572
Fe   8.392   1.678   20.319
Fe   8.392   6.714   6.572
Fe   8.392   6.714   20.319
Fe   3.357   1.678   13.445
Fe   3.357   1.678   27.192
Fe   3.357   6.714   13.445
Fe   3.357   6.714   27.192
Fe   8.392   1.678   13.445
Fe   8.392   1.678   27.192
Fe   8.392   6.714   13.445
Fe   8.392   6.714   27.192
Fe   3.357   1.678   2.593
Fe   3.357   1.678   16.340
Fe   3.357   6.714   2.593
Fe   3.357   6.714   16.340
Fe   8.392   1.678   2.593
Fe   8.392   1.678   16.340
Fe   8.392   6.714   2.593
Fe   8.392   6.714   16.340
Fe   3.357   1.678   9.466
Fe   3.357   1.678   23.214
Fe   3.357   6.714   9.466
Fe   3.357   6.714   23.214
Fe   8.392   1.678   9.466
Fe   8.392   1.678   23.214
Fe   8.392   6.714   9.466
Fe   8.392   6.714   23.214
Fe   1.678   3.357   11.154
Fe   1.678   3.357   24.901
Fe   1.678   8.392   11.154
Fe   1.678   8.392   24.901
Fe   6.714   3.357   11.154
Fe   6.714   3.357   24.901
Fe   6.714   8.392   11.154
Fe   6.714   8.392   24.901
Fe   1.678   3.357   4.281
Fe   1.678   3.357   18.028
Fe   1.678   8.392   4.281
Fe   1.678   8.392   18.028
Fe   6.714   3.357   4.281
Fe   6.714   3.357   18.028
Fe   6.714   8.392   4.281
Fe   6.714   8.392   18.028
Fe   1.678   3.357   7.175
Fe   1.678   3.357   20.922
Fe   1.678   8.392   7.175
Fe   1.678   8.392   20.922
Fe   6.714   3.357   7.175
Fe   6.714   3.357   20.922
Fe   6.714   8.392   7.175
Fe   6.714   8.392   20.922
Fe   1.678   3.357   0.302
Fe   1.678   3.357   14.049
Fe   1.678   8.392   0.302
Fe   1.678   8.392   14.049
Fe   6.714   3.357   0.302
Fe   6.714   3.357   14.049
Fe   6.714   8.392   0.302
Fe   6.714   8.392   14.049
O   3.494   0.000   3.437
O   3.494   0.000   17.184
O   3.494   5.035   3.437
O   3.494   5.035   17.184
O   8.530   0.000   3.437
O   8.530   0.000   17.184
O   8.530   5.035   3.437
O   8.530   5.035   17.184
O   1.541   1.541   3.437
O   1.541   1.541   17.184
O   1.541   6.577   3.437
O   1.541   6.577   17.184
O   6.577   1.541   3.437
O   6.577   1.541   17.184
O   6.577   6.577   3.437
O   6.577   6.577   17.184
O   0.000   3.494   3.437
O   0.000   3.494   17.184
O   0.000   8.530   3.437
O   0.000   8.530   17.184
O   5.035   3.494   3.437
O   5.035   3.494   17.184
O   5.035   8.530   3.437
O   5.035   8.530   17.184
O   3.494   3.494   10.310
O   3.494   3.494   24.057
O   3.494   8.530   10.310
O   3.494   8.530   24.057
O   8.530   3.494   10.310
O   8.530   3.494   24.057
O   8.530   8.530   10.310
O   8.530   8.530   24.057
O   0.000   1.541   10.310
O   0.000   1.541   24.057
O   0.000   6.577   10.310
O   0.000   6.577   24.057
O   5.035   1.541   10.310
O   5.035   1.541   24.057
O   5.035   6.577   10.310
O   5.035   6.577   24.057
O   1.541   0.000   10.310
O   1.541   0.000   24.057
O   1.541   5.035   10.310
O   1.541   5.035   24.057
O   6.577   0.000   10.310
O   6.577   0.000   24.057
O   6.577   5.035   10.310
O   6.577   5.035   24.057
O   1.816   1.678   8.019
O   1.816   1.678   21.766
O   1.816   6.714   8.019
O   1.816   6.714   21.766
O   6.851   1.678   8.019
O   6.851   1.678   21.766
O   6.851   6.714   8.019
O   6.851   6.714   21.766
O   4.898   3.220   8.019
O   4.898   3.220   21.766
O   4.898   8.255   8.019
O   4.898   8.255   21.766
O   9.934   3.220   8.019
O   9.934   3.220   21.766
O   9.934   8.255   8.019
O   9.934   8.255   21.766
O   3.357   0.137   8.019
O   3.357   0.137   21.766
O   3.357   5.173   8.019
O   3.357   5.173   21.766
O   8.392   0.137   8.019
O   8.392   0.137   21.766
O   8.392   5.173   8.019
O   8.392   5.173   21.766
O   1.816   0.137   1.146
O   1.816   0.137   14.893
O   1.816   5.173   1.146
O   1.816   5.173   14.893
O   6.851   0.137   1.146
O   6.851   0.137   14.893
O   6.851   5.173   1.146
O   6.851   5.173   14.893
O   3.357   3.220   1.146
O   3.357   3.220   14.893
O   3.357   8.255   1.146
O   3.357   8.255   14.893
O   8.392   3.220   1.146
O   8.392   3.220   14.893
O   8.392   8.255   1.146
O   8.392   8.255   14.893
O   4.898   1.678   1.146
O   4.898   1.678   14.893
O   4.898   6.714   1.146
O   4.898   6.714   14.893
O   9.934   1.678   1.146
O   9.934   1.678   14.893
O   9.934   6.714   1.146
O   9.934   6.714   14.893
O   0.137   3.357   12.602
O   0.137   3.357   26.349
O   0.137   8.392   12.602
O   0.137   8.392   26.349
O   5.173   3.357   12.602
O   5.173   3.357   26.349
O   5.173   8.392   12.602
O   5.173   8.392   26.349
O   3.220   4.898   12.602
O   3.220   4.898   26.349
O   3.220   9.934   12.602
O   3.220   9.934   26.349
O   8.255   4.898   12.602
O   8.255   4.898   26.349
O   8.255   9.934   12.602
O   8.255   9.934   26.349
O   1.678   1.816   12.602
O   1.678   1.816   26.349
O   1.678   6.851   12.602
O   1.678   6.851   26.349
O   6.714   1.816   12.602
O   6.714   1.816   26.349
O   6.714   6.851   12.602
O   6.714   6.851   26.349
O   0.137   1.816   5.728
O   0.137   1.816   19.475
O   0.137   6.851   5.728
O   0.137   6.851   19.475
O   5.173   1.816   5.728
O   5.173   1.816   19.475
O   5.173   6.851   5.728
O   5.173   6.851   19.475
O   1.678   4.898   5.728
O   1.678   4.898   19.475
O   1.678   9.934   5.728
O   1.678   9.934   19.475
O   6.714   4.898   5.728
O   6.714   4.898   19.475
O   6.714   9.934   5.728
O   6.714   9.934   19.475
O   3.220   3.357   5.728
O   3.220   3.357   19.475
O   3.220   8.392   5.728
O   3.220   8.392   19.475
O   8.255   3.357   5.728
O   8.255   3.357   19.475
O   8.255   8.392   5.728
O   8.255   8.392   19.475
