448

Fe   1.049   1.049   1.049
Fe   1.049   1.049   9.442
Fe   1.049   9.442   1.049
Fe   1.049   9.442   9.442
Fe   9.442   1.049   1.049
Fe   9.442   1.049   9.442
Fe   9.442   9.442   1.049
Fe   9.442   9.442   9.442
Fe   7.344   3.147   5.246
Fe   7.344   3.147   13.639
Fe   7.344   11.540   5.246
Fe   7.344   11.540   13.639
Fe   15.737   3.147   5.246
Fe   15.737   3.147   13.639
Fe   15.737   11.540   5.246
Fe   15.737   11.540   13.639
Fe   3.147   5.246   7.344
Fe   3.147   5.246   15.737
Fe   3.147   13.639   7.344
Fe   3.147   13.639   15.737
Fe   11.540   5.246   7.344
Fe   11.540   5.246   15.737
Fe   11.540   13.639   7.344
Fe   11.540   13.639   15.737
Fe   5.246   7.344   3.147
Fe   5.246   7.344   11.540
Fe   5.246   15.737   3.147
Fe   5.246   15.737   11.540
Fe   13.639   7.344   3.147
Fe   13.639   7.344   11.540
Fe   13.639   15.737   3.147
Fe   13.639   15.737   11.540
Fe   3.147   7.344   5.246
Fe   3.147   7.344   13.639
Fe   3.147   15.737   5.246
Fe   3.147   15.737   13.639
Fe   11.540   7.344   5.246
Fe   11.540   7.344   13.639
Fe   11.540   15.737   5.246
Fe   11.540   15.737   13.639
Fe   7.344   5.246   3.147
Fe   7.344   5.246   11.540
Fe   7.344   13.639   3.147
Fe   7.344   13.639   11.540
Fe   15.737   5.246   3.147
Fe   15.737   5.246   11.540
Fe   15.737   13.639   3.147
Fe   15.737   13.639   11.540
Fe   5.246   3.147   7.344
Fe   5.246   3.147   15.737
Fe   5.246   11.540   7.344
Fe   5.246   11.540   15.737
Fe   13.639   3.147   7.344
Fe   13.639   3.147   15.737
Fe   13.639   11.540   7.344
Fe   13.639   11.540   15.737
Fe   1.049   5.246   5.246
Fe   1.049   5.246   13.639
Fe   1.049   13.639   5.246
Fe   1.049   13.639   13.639
Fe   9.442   5.246   5.246
Fe   9.442   5.246   13.639
Fe   9.442   13.639   5.246
Fe   9.442   13.639   13.639
Fe   7.344   7.344   1.049
Fe   7.344   7.344   9.442
Fe   7.344   15.737   1.049
Fe   7.344   15.737   9.442
Fe   15.737   7.344   1.049
Fe   15.737   7.344   9.442
Fe   15.737   15.737   1.049
Fe   15.737   15.737   9.442
Fe   3.147   1.049   3.147
Fe   3.147   1.049   11.540
Fe   3.147   9.442   3.147
Fe   3.147   9.442   11.540
Fe   11.540   1.049   3.147
Fe   11.540   1.049   11.540
Fe   11.540   9.442   3.147
Fe   11.540   9.442   11.540
Fe   3.147   3.147   1.049
Fe   3.147   3.147   9.442
Fe   3.147   11.540   1.049
Fe   3.147   11.540   9.442
Fe   11.540   3.147   1.049
Fe   11.540   3.147   9.442
Fe   11.540   11.540   1.049
Fe   11.540   11.540   9.442
Fe   7.344   1.049   7.344
Fe   7.344   1.049   15.737
Fe   7.344   9.442   7.344
Fe   7.344   9.442   15.737
Fe   15.737   1.049   7.344
Fe   15.737   1.049   15.737
Fe   15.737   9.442   7.344
Fe   15.737   9.442   15.737
Fe   5.246   1.049   5.246
Fe   5.246   1.049   13.639
Fe   5.246   9.442   5.246
Fe   5.246   9.442   13.639
Fe   13.639   1.049   5.246
Fe   13.639   1.049   13.639
Fe   13.639   9.442   5.246
Fe   13.639   9.442   13.639
Fe   1.049   7.344   7.344
Fe   1.049   7.344   15.737
Fe   1.049   15.737   7.344
Fe   1.049   15.737   15.737
Fe   9.442   7.344   7.344
Fe   9.442   7.344   15.737
Fe   9.442   15.737   7.344
Fe   9.442   15.737   15.737
Fe   1.049   3.147   3.147
Fe   1.049   3.147   11.540
Fe   1.049   11.540   3.147
Fe   1.049   11.540   11.540
Fe   9.442   3.147   3.147
Fe   9.442   3.147   11.540
Fe   9.442   11.540   3.147
Fe   9.442   11.540   11.540
Fe   5.246   5.246   1.049
Fe   5.246   5.246   9.442
Fe   5.246   13.639   1.049
Fe   5.246   13.639   9.442
Fe   13.639   5.246   1.049
Fe   13.639   5.246   9.442
Fe   13.639   13.639   1.049
Fe   13.639   13.639   9.442
Fe   4.197   4.197   4.197
Fe   4.197   4.197   12.590
Fe   4.197   12.590   4.197
Fe   4.197   12.590   12.590
Fe   12.590   4.197   4.197
Fe   12.590   4.197   12.590
Fe   12.590   12.590   4.197
Fe   12.590   12.590   12.590
Fe   4.197   0.000   0.000
Fe   4.197   0.000   8.393
Fe   4.197   8.393   0.000
Fe   4.197   8.393   8.393
Fe   12.590   0.000   0.000
Fe   12.590   0.000   8.393
Fe   12.590   8.393   0.000
Fe   12.590   8.393   8.393
Fe   0.000   0.000   4.197
Fe   0.000   0.000   12.590
Fe   0.000   8.393   4.197
Fe   0.000   8.393   12.590
Fe   8.393   0.000   4.197
Fe   8.393   0.000   12.590
Fe   8.393   8.393   4.197
Fe   8.393   8.393   12.590
Fe   0.000   4.197   0.000
Fe   0.000   4.197   8.393
Fe   0.000   12.590   0.000
Fe   0.000   12.590   8.393
Fe   8.393   4.197   0.000
Fe   8.393   4.197   8.393
Fe   8.393   12.590   0.000
Fe   8.393   12.590   8.393
Fe   2.098   6.295   2.098
Fe   2.098   6.295   10.491
Fe   2.098   14.688   2.098
Fe   2.098   14.688   10.491
Fe   10.491   6.295   2.098
Fe   10.491   6.295   10.491
Fe   10.491   14.688   2.098
Fe   10.491   14.688   10.491
Fe   6.295   6.295   6.295
Fe   6.295   6.295   14.688
Fe   6.295   14.688   6.295
Fe   6.295   14.688   14.688
Fe   14.688   6.295   6.295
Fe   14.688   6.295   14.688
Fe   14.688   14.688   6.295
Fe   14.688   14.688   14.688
Fe   6.295   2.098   2.098
Fe   6.295   2.098   10.491
Fe   6.295   10.491   2.098
Fe   6.295   10.491   10.491
Fe   14.688   2.098   2.098
Fe   14.688   2.098   10.491
Fe   14.688   10.491   2.098
Fe   14.688   10.491   10.491
Fe   2.098   2.098   6.295
Fe   2.098   2.098   14.688
Fe   2.098   10.491   6.295
Fe   2.098   10.491   14.688
Fe   10.491   2.098   6.295
Fe   10.491   2.098   14.688
Fe   10.491   10.491   6.295
Fe   10.491   10.491   14.688
O   2.139   2.139   2.139
O   2.139   2.139   10.532
O   2.139   10.532   2.139
O   2.139   10.532   10.532
O   10.532   2.139   2.139
O   10.532   2.139   10.532
O   10.532   10.532   2.139
O   10.532   10.532   10.532
O   6.254   2.057   6.336
O   6.254   2.057   14.729
O   6.254   10.450   6.336
O   6.254   10.450   14.729
O   14.647   2.057   6.336
O   14.647   2.057   14.729
O   14.647   10.450   6.336
O   14.647   10.450   14.729
O   2.057   6.336   6.254
O   2.057   6.336   14.647
O   2.057   14.729   6.254
O   2.057   14.729   14.647
O   10.450   6.336   6.254
O   10.450   6.336   14.647
O   10.450   14.729   6.254
O   10.450   14.729   14.647
O   6.336   6.254   2.057
O   6.336   6.254   10.450
O   6.336   14.647   2.057
O   6.336   14.647   10.450
O   14.729   6.254   2.057
O   14.729   6.254   10.450
O   14.729   14.647   2.057
O   14.729   14.647   10.450
O   0.041   4.238   4.155
O   0.041   4.238   12.548
O   0.041   12.631   4.155
O   0.041   12.631   12.548
O   8.434   4.238   4.155
O   8.434   4.238   12.548
O   8.434   12.631   4.155
O   8.434   12.631   12.548
O   8.352   8.352   8.352
O   8.352   8.352   16.745
O   8.352   16.745   8.352
O   8.352   16.745   16.745
O   16.745   8.352   8.352
O   16.745   8.352   16.745
O   16.745   16.745   8.352
O   16.745   16.745   16.745
O   4.238   4.155   0.041
O   4.238   4.155   8.434
O   4.238   12.548   0.041
O   4.238   12.548   8.434
O   12.631   4.155   0.041
O   12.631   4.155   8.434
O   12.631   12.548   0.041
O   12.631   12.548   8.434
O   4.155   0.041   4.238
O   4.155   0.041   12.631
O   4.155   8.434   4.238
O   4.155   8.434   12.631
O   12.548   0.041   4.238
O   12.548   0.041   12.631
O   12.548   8.434   4.238
O   12.548   8.434   12.631
O   4.238   0.041   4.155
O   4.238   0.041   12.548
O   4.238   8.434   4.155
O   4.238   8.434   12.548
O   12.631   0.041   4.155
O   12.631   0.041   12.548
O   12.631   8.434   4.155
O   12.631   8.434   12.548
O   0.041   4.155   4.238
O   0.041   4.155   12.631
O   0.041   12.548   4.238
O   0.041   12.548   12.631
O   8.434   4.155   4.238
O   8.434   4.155   12.631
O   8.434   12.548   4.238
O   8.434   12.548   12.631
O   4.155   4.238   0.041
O   4.155   4.238   8.434
O   4.155   12.631   0.041
O   4.155   12.631   8.434
O   12.548   4.238   0.041
O   12.548   4.238   8.434
O   12.548   12.631   0.041
O   12.548   12.631   8.434
O   2.057   6.254   6.336
O   2.057   6.254   14.729
O   2.057   14.647   6.336
O   2.057   14.647   14.729
O   10.450   6.254   6.336
O   10.450   6.254   14.729
O   10.450   14.647   6.336
O   10.450   14.647   14.729
O   6.254   6.336   2.057
O   6.254   6.336   10.450
O   6.254   14.729   2.057
O   6.254   14.729   10.450
O   14.647   6.336   2.057
O   14.647   6.336   10.450
O   14.647   14.729   2.057
O   14.647   14.729   10.450
O   6.336   2.057   6.254
O   6.336   2.057   14.647
O   6.336   10.450   6.254
O   6.336   10.450   14.647
O   14.729   2.057   6.254
O   14.729   2.057   14.647
O   14.729   10.450   6.254
O   14.729   10.450   14.647
O   2.139   6.336   6.336
O   2.139   6.336   14.729
O   2.139   14.729   6.336
O   2.139   14.729   14.729
O   10.532   6.336   6.336
O   10.532   6.336   14.729
O   10.532   14.729   6.336
O   10.532   14.729   14.729
O   6.254   6.254   2.139
O   6.254   6.254   10.532
O   6.254   14.647   2.139
O   6.254   14.647   10.532
O   14.647   6.254   2.139
O   14.647   6.254   10.532
O   14.647   14.647   2.139
O   14.647   14.647   10.532
O   2.057   2.139   2.057
O   2.057   2.139   10.450
O   2.057   10.532   2.057
O   2.057   10.532   10.450
O   10.450   2.139   2.057
O   10.450   2.139   10.450
O   10.450   10.532   2.057
O   10.450   10.532   10.450
O   0.041   0.041   8.352
O   0.041   0.041   16.745
O   0.041   8.434   8.352
O   0.041   8.434   16.745
O   8.434   0.041   8.352
O   8.434   0.041   16.745
O   8.434   8.434   8.352
O   8.434   8.434   16.745
O   8.352   4.155   4.155
O   8.352   4.155   12.548
O   8.352   12.548   4.155
O   8.352   12.548   12.548
O   16.745   4.155   4.155
O   16.745   4.155   12.548
O   16.745   12.548   4.155
O   16.745   12.548   12.548
O   4.238   8.352   4.238
O   4.238   8.352   12.631
O   4.238   16.745   4.238
O   4.238   16.745   12.631
O   12.631   8.352   4.238
O   12.631   8.352   12.631
O   12.631   16.745   4.238
O   12.631   16.745   12.631
O   4.238   4.238   8.352
O   4.238   4.238   16.745
O   4.238   12.631   8.352
O   4.238   12.631   16.745
O   12.631   4.238   8.352
O   12.631   4.238   16.745
O   12.631   12.631   8.352
O   12.631   12.631   16.745
O   0.041   8.352   0.041
O   0.041   8.352   8.434
O   0.041   16.745   0.041
O   0.041   16.745   8.434
O   8.434   8.352   0.041
O   8.434   8.352   8.434
O   8.434   16.745   0.041
O   8.434   16.745   8.434
O   2.057   2.057   2.139
O   2.057   2.057   10.532
O   2.057   10.450   2.139
O   2.057   10.450   10.532
O   10.450   2.057   2.139
O   10.450   2.057   10.532
O   10.450   10.450   2.139
O   10.450   10.450   10.532
O   6.254   2.139   6.254
O   6.254   2.139   14.647
O   6.254   10.532   6.254
O   6.254   10.532   14.647
O   14.647   2.139   6.254
O   14.647   2.139   14.647
O   14.647   10.532   6.254
O   14.647   10.532   14.647
O   6.336   2.139   6.336
O   6.336   2.139   14.729
O   6.336   10.532   6.336
O   6.336   10.532   14.729
O   14.729   2.139   6.336
O   14.729   2.139   14.729
O   14.729   10.532   6.336
O   14.729   10.532   14.729
O   2.139   6.254   6.254
O   2.139   6.254   14.647
O   2.139   14.647   6.254
O   2.139   14.647   14.647
O   10.532   6.254   6.254
O   10.532   6.254   14.647
O   10.532   14.647   6.254
O   10.532   14.647   14.647
O   4.155   8.352   4.155
O   4.155   8.352   12.548
O   4.155   16.745   4.155
O   4.155   16.745   12.548
O   12.548   8.352   4.155
O   12.548   8.352   12.548
O   12.548   16.745   4.155
O   12.548   16.745   12.548
O   8.352   0.041   0.041
O   8.352   0.041   8.434
O   8.352   8.434   0.041
O   8.352   8.434   8.434
O   16.745   0.041   0.041
O   16.745   0.041   8.434
O   16.745   8.434   0.041
O   16.745   8.434   8.434
O   8.352   4.238   4.238
O   8.352   4.238   12.631
O   8.352   12.631   4.238
O   8.352   12.631   12.631
O   16.745   4.238   4.238
O   16.745   4.238   12.631
O   16.745   12.631   4.238
O   16.745   12.631   12.631
O   2.139   2.057   2.057
O   2.139   2.057   10.450
O   2.139   10.450   2.057
O   2.139   10.450   10.450
O   10.532   2.057   2.057
O   10.532   2.057   10.450
O   10.532   10.450   2.057
O   10.532   10.450   10.450
O   6.336   6.336   2.139
O   6.336   6.336   10.532
O   6.336   14.729   2.139
O   6.336   14.729   10.532
O   14.729   6.336   2.139
O   14.729   6.336   10.532
O   14.729   14.729   2.139
O   14.729   14.729   10.532
O   4.155   4.155   8.352
O   4.155   4.155   16.745
O   4.155   12.548   8.352
O   4.155   12.548   16.745
O   12.548   4.155   8.352
O   12.548   4.155   16.745
O   12.548   12.548   8.352
O   12.548   12.548   16.745
