448

Fe   1.050   1.050   1.050
Fe   1.050   1.050   9.446
Fe   1.050   9.446   1.050
Fe   1.050   9.446   9.446
Fe   9.446   1.050   1.050
Fe   9.446   1.050   9.446
Fe   9.446   9.446   1.050
Fe   9.446   9.446   9.446
Fe   7.347   3.149   5.248
Fe   7.347   3.149   13.644
Fe   7.347   11.545   5.248
Fe   7.347   11.545   13.644
Fe   15.743   3.149   5.248
Fe   15.743   3.149   13.644
Fe   15.743   11.545   5.248
Fe   15.743   11.545   13.644
Fe   3.149   5.248   7.347
Fe   3.149   5.248   15.743
Fe   3.149   13.644   7.347
Fe   3.149   13.644   15.743
Fe   11.545   5.248   7.347
Fe   11.545   5.248   15.743
Fe   11.545   13.644   7.347
Fe   11.545   13.644   15.743
Fe   5.248   7.347   3.149
Fe   5.248   7.347   11.545
Fe   5.248   15.743   3.149
Fe   5.248   15.743   11.545
Fe   13.644   7.347   3.149
Fe   13.644   7.347   11.545
Fe   13.644   15.743   3.149
Fe   13.644   15.743   11.545
Fe   3.149   7.347   5.248
Fe   3.149   7.347   13.644
Fe   3.149   15.743   5.248
Fe   3.149   15.743   13.644
Fe   11.545   7.347   5.248
Fe   11.545   7.347   13.644
Fe   11.545   15.743   5.248
Fe   11.545   15.743   13.644
Fe   7.347   5.248   3.149
Fe   7.347   5.248   11.545
Fe   7.347   13.644   3.149
Fe   7.347   13.644   11.545
Fe   15.743   5.248   3.149
Fe   15.743   5.248   11.545
Fe   15.743   13.644   3.149
Fe   15.743   13.644   11.545
Fe   5.248   3.149   7.347
Fe   5.248   3.149   15.743
Fe   5.248   11.545   7.347
Fe   5.248   11.545   15.743
Fe   13.644   3.149   7.347
Fe   13.644   3.149   15.743
Fe   13.644   11.545   7.347
Fe   13.644   11.545   15.743
Fe   1.050   5.248   5.248
Fe   1.050   5.248   13.644
Fe   1.050   13.644   5.248
Fe   1.050   13.644   13.644
Fe   9.446   5.248   5.248
Fe   9.446   5.248   13.644
Fe   9.446   13.644   5.248
Fe   9.446   13.644   13.644
Fe   7.347   7.347   1.050
Fe   7.347   7.347   9.446
Fe   7.347   15.743   1.050
Fe   7.347   15.743   9.446
Fe   15.743   7.347   1.050
Fe   15.743   7.347   9.446
Fe   15.743   15.743   1.050
Fe   15.743   15.743   9.446
Fe   3.149   1.050   3.149
Fe   3.149   1.050   11.545
Fe   3.149   9.446   3.149
Fe   3.149   9.446   11.545
Fe   11.545   1.050   3.149
Fe   11.545   1.050   11.545
Fe   11.545   9.446   3.149
Fe   11.545   9.446   11.545
Fe   3.149   3.149   1.050
Fe   3.149   3.149   9.446
Fe   3.149   11.545   1.050
Fe   3.149   11.545   9.446
Fe   11.545   3.149   1.050
Fe   11.545   3.149   9.446
Fe   11.545   11.545   1.050
Fe   11.545   11.545   9.446
Fe   7.347   1.050   7.347
Fe   7.347   1.050   15.743
Fe   7.347   9.446   7.347
Fe   7.347   9.446   15.743
Fe   15.743   1.050   7.347
Fe   15.743   1.050   15.743
Fe   15.743   9.446   7.347
Fe   15.743   9.446   15.743
Fe   5.248   1.050   5.248
Fe   5.248   1.050   13.644
Fe   5.248   9.446   5.248
Fe   5.248   9.446   13.644
Fe   13.644   1.050   5.248
Fe   13.644   1.050   13.644
Fe   13.644   9.446   5.248
Fe   13.644   9.446   13.644
Fe   1.050   7.347   7.347
Fe   1.050   7.347   15.743
Fe   1.050   15.743   7.347
Fe   1.050   15.743   15.743
Fe   9.446   7.347   7.347
Fe   9.446   7.347   15.743
Fe   9.446   15.743   7.347
Fe   9.446   15.743   15.743
Fe   1.050   3.149   3.149
Fe   1.050   3.149   11.545
Fe   1.050   11.545   3.149
Fe   1.050   11.545   11.545
Fe   9.446   3.149   3.149
Fe   9.446   3.149   11.545
Fe   9.446   11.545   3.149
Fe   9.446   11.545   11.545
Fe   5.248   5.248   1.050
Fe   5.248   5.248   9.446
Fe   5.248   13.644   1.050
Fe   5.248   13.644   9.446
Fe   13.644   5.248   1.050
Fe   13.644   5.248   9.446
Fe   13.644   13.644   1.050
Fe   13.644   13.644   9.446
Fe   4.198   4.198   4.198
Fe   4.198   4.198   12.594
Fe   4.198   12.594   4.198
Fe   4.198   12.594   12.594
Fe   12.594   4.198   4.198
Fe   12.594   4.198   12.594
Fe   12.594   12.594   4.198
Fe   12.594   12.594   12.594
Fe   4.198   0.000   0.000
Fe   4.198   0.000   8.396
Fe   4.198   8.396   0.000
Fe   4.198   8.396   8.396
Fe   12.594   0.000   0.000
Fe   12.594   0.000   8.396
Fe   12.594   8.396   0.000
Fe   12.594   8.396   8.396
Fe   0.000   0.000   4.198
Fe   0.000   0.000   12.594
Fe   0.000   8.396   4.198
Fe   0.000   8.396   12.594
Fe   8.396   0.000   4.198
Fe   8.396   0.000   12.594
Fe   8.396   8.396   4.198
Fe   8.396   8.396   12.594
Fe   0.000   4.198   0.000
Fe   0.000   4.198   8.396
Fe   0.000   12.594   0.000
Fe   0.000   12.594   8.396
Fe   8.396   4.198   0.000
Fe   8.396   4.198   8.396
Fe   8.396   12.594   0.000
Fe   8.396   12.594   8.396
Fe   2.099   6.297   2.099
Fe   2.099   6.297   10.495
Fe   2.099   14.693   2.099
Fe   2.099   14.693   10.495
Fe   10.495   6.297   2.099
Fe   10.495   6.297   10.495
Fe   10.495   14.693   2.099
Fe   10.495   14.693   10.495
Fe   6.297   6.297   6.297
Fe   6.297   6.297   14.693
Fe   6.297   14.693   6.297
Fe   6.297   14.693   14.693
Fe   14.693   6.297   6.297
Fe   14.693   6.297   14.693
Fe   14.693   14.693   6.297
Fe   14.693   14.693   14.693
Fe   6.297   2.099   2.099
Fe   6.297   2.099   10.495
Fe   6.297   10.495   2.099
Fe   6.297   10.495   10.495
Fe   14.693   2.099   2.099
Fe   14.693   2.099   10.495
Fe   14.693   10.495   2.099
Fe   14.693   10.495   10.495
Fe   2.099   2.099   6.297
Fe   2.099   2.099   14.693
Fe   2.099   10.495   6.297
Fe   2.099   10.495   14.693
Fe   10.495   2.099   6.297
Fe   10.495   2.099   14.693
Fe   10.495   10.495   6.297
Fe   10.495   10.495   14.693
O   2.140   2.140   2.140
O   2.140   2.140   10.536
O   2.140   10.536   2.140
O   2.140   10.536   10.536
O   10.536   2.140   2.140
O   10.536   2.140   10.536
O   10.536   10.536   2.140
O   10.536   10.536   10.536
O   6.256   2.058   6.338
O   6.256   2.058   14.734
O   6.256   10.454   6.338
O   6.256   10.454   14.734
O   14.652   2.058   6.338
O   14.652   2.058   14.734
O   14.652   10.454   6.338
O   14.652   10.454   14.734
O   2.058   6.338   6.256
O   2.058   6.338   14.652
O   2.058   14.734   6.256
O   2.058   14.734   14.652
O   10.454   6.338   6.256
O   10.454   6.338   14.652
O   10.454   14.734   6.256
O   10.454   14.734   14.652
O   6.338   6.256   2.058
O   6.338   6.256   10.454
O   6.338   14.652   2.058
O   6.338   14.652   10.454
O   14.734   6.256   2.058
O   14.734   6.256   10.454
O   14.734   14.652   2.058
O   14.734   14.652   10.454
O   0.041   4.239   4.157
O   0.041   4.239   12.553
O   0.041   12.635   4.157
O   0.041   12.635   12.553
O   8.437   4.239   4.157
O   8.437   4.239   12.553
O   8.437   12.635   4.157
O   8.437   12.635   12.553
O   8.355   8.355   8.355
O   8.355   8.355   16.751
O   8.355   16.751   8.355
O   8.355   16.751   16.751
O   16.751   8.355   8.355
O   16.751   8.355   16.751
O   16.751   16.751   8.355
O   16.751   16.751   16.751
O   4.239   4.157   0.041
O   4.239   4.157   8.437
O   4.239   12.553   0.041
O   4.239   12.553   8.437
O   12.635   4.157   0.041
O   12.635   4.157   8.437
O   12.635   12.553   0.041
O   12.635   12.553   8.437
O   4.157   0.041   4.239
O   4.157   0.041   12.635
O   4.157   8.437   4.239
O   4.157   8.437   12.635
O   12.553   0.041   4.239
O   12.553   0.041   12.635
O   12.553   8.437   4.239
O   12.553   8.437   12.635
O   4.239   0.041   4.157
O   4.239   0.041   12.553
O   4.239   8.437   4.157
O   4.239   8.437   12.553
O   12.635   0.041   4.157
O   12.635   0.041   12.553
O   12.635   8.437   4.157
O   12.635   8.437   12.553
O   0.041   4.157   4.239
O   0.041   4.157   12.635
O   0.041   12.553   4.239
O   0.041   12.553   12.635
O   8.437   4.157   4.239
O   8.437   4.157   12.635
O   8.437   12.553   4.239
O   8.437   12.553   12.635
O   4.157   4.239   0.041
O   4.157   4.239   8.437
O   4.157   12.635   0.041
O   4.157   12.635   8.437
O   12.553   4.239   0.041
O   12.553   4.239   8.437
O   12.553   12.635   0.041
O   12.553   12.635   8.437
O   2.058   6.256   6.338
O   2.058   6.256   14.734
O   2.058   14.652   6.338
O   2.058   14.652   14.734
O   10.454   6.256   6.338
O   10.454   6.256   14.734
O   10.454   14.652   6.338
O   10.454   14.652   14.734
O   6.256   6.338   2.058
O   6.256   6.338   10.454
O   6.256   14.734   2.058
O   6.256   14.734   10.454
O   14.652   6.338   2.058
O   14.652   6.338   10.454
O   14.652   14.734   2.058
O   14.652   14.734   10.454
O   6.338   2.058   6.256
O   6.338   2.058   14.652
O   6.338   10.454   6.256
O   6.338   10.454   14.652
O   14.734   2.058   6.256
O   14.734   2.058   14.652
O   14.734   10.454   6.256
O   14.734   10.454   14.652
O   2.140   6.338   6.338
O   2.140   6.338   14.734
O   2.140   14.734   6.338
O   2.140   14.734   14.734
O   10.536   6.338   6.338
O   10.536   6.338   14.734
O   10.536   14.734   6.338
O   10.536   14.734   14.734
O   6.256   6.256   2.140
O   6.256   6.256   10.536
O   6.256   14.652   2.140
O   6.256   14.652   10.536
O   14.652   6.256   2.140
O   14.652   6.256   10.536
O   14.652   14.652   2.140
O   14.652   14.652   10.536
O   2.058   2.140   2.058
O   2.058   2.140   10.454
O   2.058   10.536   2.058
O   2.058   10.536   10.454
O   10.454   2.140   2.058
O   10.454   2.140   10.454
O   10.454   10.536   2.058
O   10.454   10.536   10.454
O   0.041   0.041   8.355
O   0.041   0.041   16.751
O   0.041   8.437   8.355
O   0.041   8.437   16.751
O   8.437   0.041   8.355
O   8.437   0.041   16.751
O   8.437   8.437   8.355
O   8.437   8.437   16.751
O   8.355   4.157   4.157
O   8.355   4.157   12.553
O   8.355   12.553   4.157
O   8.355   12.553   12.553
O   16.751   4.157   4.157
O   16.751   4.157   12.553
O   16.751   12.553   4.157
O   16.751   12.553   12.553
O   4.239   8.355   4.239
O   4.239   8.355   12.635
O   4.239   16.751   4.239
O   4.239   16.751   12.635
O   12.635   8.355   4.239
O   12.635   8.355   12.635
O   12.635   16.751   4.239
O   12.635   16.751   12.635
O   4.239   4.239   8.355
O   4.239   4.239   16.751
O   4.239   12.635   8.355
O   4.239   12.635   16.751
O   12.635   4.239   8.355
O   12.635   4.239   16.751
O   12.635   12.635   8.355
O   12.635   12.635   16.751
O   0.041   8.355   0.041
O   0.041   8.355   8.437
O   0.041   16.751   0.041
O   0.041   16.751   8.437
O   8.437   8.355   0.041
O   8.437   8.355   8.437
O   8.437   16.751   0.041
O   8.437   16.751   8.437
O   2.058   2.058   2.140
O   2.058   2.058   10.536
O   2.058   10.454   2.140
O   2.058   10.454   10.536
O   10.454   2.058   2.140
O   10.454   2.058   10.536
O   10.454   10.454   2.140
O   10.454   10.454   10.536
O   6.256   2.140   6.256
O   6.256   2.140   14.652
O   6.256   10.536   6.256
O   6.256   10.536   14.652
O   14.652   2.140   6.256
O   14.652   2.140   14.652
O   14.652   10.536   6.256
O   14.652   10.536   14.652
O   6.338   2.140   6.338
O   6.338   2.140   14.734
O   6.338   10.536   6.338
O   6.338   10.536   14.734
O   14.734   2.140   6.338
O   14.734   2.140   14.734
O   14.734   10.536   6.338
O   14.734   10.536   14.734
O   2.140   6.256   6.256
O   2.140   6.256   14.652
O   2.140   14.652   6.256
O   2.140   14.652   14.652
O   10.536   6.256   6.256
O   10.536   6.256   14.652
O   10.536   14.652   6.256
O   10.536   14.652   14.652
O   4.157   8.355   4.157
O   4.157   8.355   12.553
O   4.157   16.751   4.157
O   4.157   16.751   12.553
O   12.553   8.355   4.157
O   12.553   8.355   12.553
O   12.553   16.751   4.157
O   12.553   16.751   12.553
O   8.355   0.041   0.041
O   8.355   0.041   8.437
O   8.355   8.437   0.041
O   8.355   8.437   8.437
O   16.751   0.041   0.041
O   16.751   0.041   8.437
O   16.751   8.437   0.041
O   16.751   8.437   8.437
O   8.355   4.239   4.239
O   8.355   4.239   12.635
O   8.355   12.635   4.239
O   8.355   12.635   12.635
O   16.751   4.239   4.239
O   16.751   4.239   12.635
O   16.751   12.635   4.239
O   16.751   12.635   12.635
O   2.140   2.058   2.058
O   2.140   2.058   10.454
O   2.140   10.454   2.058
O   2.140   10.454   10.454
O   10.536   2.058   2.058
O   10.536   2.058   10.454
O   10.536   10.454   2.058
O   10.536   10.454   10.454
O   6.338   6.338   2.140
O   6.338   6.338   10.536
O   6.338   14.734   2.140
O   6.338   14.734   10.536
O   14.734   6.338   2.140
O   14.734   6.338   10.536
O   14.734   14.734   2.140
O   14.734   14.734   10.536
O   4.157   4.157   8.355
O   4.157   4.157   16.751
O   4.157   12.553   8.355
O   4.157   12.553   16.751
O   12.553   4.157   8.355
O   12.553   4.157   16.751
O   12.553   12.553   8.355
O   12.553   12.553   16.751
