240

Fe   0.000   0.000   1.992
Fe   0.000   0.000   15.756
Fe   0.000   5.032   1.992
Fe   0.000   5.032   15.756
Fe   5.032   0.000   1.992
Fe   5.032   0.000   15.756
Fe   5.032   5.032   1.992
Fe   5.032   5.032   15.756
Fe   0.000   0.000   8.874
Fe   0.000   0.000   22.638
Fe   0.000   5.032   8.874
Fe   0.000   5.032   22.638
Fe   5.032   0.000   8.874
Fe   5.032   0.000   22.638
Fe   5.032   5.032   8.874
Fe   5.032   5.032   22.638
Fe   0.000   0.000   11.773
Fe   0.000   0.000   25.537
Fe   0.000   5.032   11.773
Fe   0.000   5.032   25.537
Fe   5.032   0.000   11.773
Fe   5.032   0.000   25.537
Fe   5.032   5.032   11.773
Fe   5.032   5.032   25.537
Fe   0.000   0.000   4.890
Fe   0.000   0.000   18.655
Fe   0.000   5.032   4.890
Fe   0.000   5.032   18.655
Fe   5.032   0.000   4.890
Fe   5.032   0.000   18.655
Fe   5.032   5.032   4.890
Fe   5.032   5.032   18.655
Fe   3.355   1.677   6.580
Fe   3.355   1.677   20.344
Fe   3.355   6.710   6.580
Fe   3.355   6.710   20.344
Fe   8.387   1.677   6.580
Fe   8.387   1.677   20.344
Fe   8.387   6.710   6.580
Fe   8.387   6.710   20.344
Fe   3.355   1.677   13.462
Fe   3.355   1.677   27.226
Fe   3.355   6.710   13.462
Fe   3.355   6.710   27.226
Fe   8.387   1.677   13.462
Fe   8.387   1.677   27.226
Fe   8.387   6.710   13.462
Fe   8.387   6.710   27.226
Fe   3.355   1.677   2.596
Fe   3.355   1.677   16.361
Fe   3.355   6.710   2.596
Fe   3.355   6.710   16.361
Fe   8.387   1.677   2.596
Fe   8.387   1.677   16.361
Fe   8.387   6.710   2.596
Fe   8.387   6.710   16.361
Fe   3.355   1.677   9.479
Fe   3.355   1.677   23.243
Fe   3.355   6.710   9.479
Fe   3.355   6.710   23.243
Fe   8.387   1.677   9.479
Fe   8.387   1.677   23.243
Fe   8.387   6.710   9.479
Fe   8.387   6.710   23.243
Fe   1.677   3.355   11.168
Fe   1.677   3.355   24.932
Fe   1.677   8.387   11.168
Fe   1.677   8.387   24.932
Fe   6.710   3.355   11.168
Fe   6.710   3.355   24.932
Fe   6.710   8.387   11.168
Fe   6.710   8.387   24.932
Fe   1.677   3.355   4.286
Fe   1.677   3.355   18.050
Fe   1.677   8.387   4.286
Fe   1.677   8.387   18.050
Fe   6.710   3.355   4.286
Fe   6.710   3.355   18.050
Fe   6.710   8.387   4.286
Fe   6.710   8.387   18.050
Fe   1.677   3.355   7.185
Fe   1.677   3.355   20.949
Fe   1.677   8.387   7.185
Fe   1.677   8.387   20.949
Fe   6.710   3.355   7.185
Fe   6.710   3.355   20.949
Fe   6.710   8.387   7.185
Fe   6.710   8.387   20.949
Fe   1.677   3.355   0.302
Fe   1.677   3.355   14.067
Fe   1.677   8.387   0.302
Fe   1.677   8.387   14.067
Fe   6.710   3.355   0.302
Fe   6.710   3.355   14.067
Fe   6.710   8.387   0.302
Fe   6.710   8.387   14.067
O   1.539   0.000   3.441
O   1.539   0.000   17.205
O   1.539   5.032   3.441
O   1.539   5.032   17.205
O   6.572   0.000   3.441
O   6.572   0.000   17.205
O   6.572   5.032   3.441
O   6.572   5.032   17.205
O   3.493   3.493   3.441
O   3.493   3.493   17.205
O   3.493   8.525   3.441
O   3.493   8.525   17.205
O   8.525   3.493   3.441
O   8.525   3.493   17.205
O   8.525   8.525   3.441
O   8.525   8.525   17.205
O   0.000   1.539   3.441
O   0.000   1.539   17.205
O   0.000   6.572   3.441
O   0.000   6.572   17.205
O   5.032   1.539   3.441
O   5.032   1.539   17.205
O   5.032   6.572   3.441
O   5.032   6.572   17.205
O   1.539   1.539   10.323
O   1.539   1.539   24.088
O   1.539   6.572   10.323
O   1.539   6.572   24.088
O   6.572   1.539   10.323
O   6.572   1.539   24.088
O   6.572   6.572   10.323
O   6.572   6.572   24.088
O   0.000   3.493   10.323
O   0.000   3.493   24.088
O   0.000   8.525   10.323
O   0.000   8.525   24.088
O   5.032   3.493   10.323
O   5.032   3.493   24.088
O   5.032   8.525   10.323
O   5.032   8.525   24.088
O   3.493   0.000   10.323
O   3.493   0.000   24.088
O   3.493   5.032   10.323
O   3.493   5.032   24.088
O   8.525   0.000   10.323
O   8.525   0.000   24.088
O   8.525   5.032   10.323
O   8.525   5.032   24.088
O   4.894   1.677   8.029
O   4.894   1.677   21.793
O   4.894   6.710   8.029
O   4.894   6.710   21.793
O   9.927   1.677   8.029
O   9.927   1.677   21.793
O   9.927   6.710   8.029
O   9.927   6.710   21.793
O   1.816   0.138   8.029
O   1.816   0.138   21.793
O   1.816   5.170   8.029
O   1.816   5.170   21.793
O   6.848   0.138   8.029
O   6.848   0.138   21.793
O   6.848   5.170   8.029
O   6.848   5.170   21.793
O   3.355   3.217   8.029
O   3.355   3.217   21.793
O   3.355   8.249   8.029
O   3.355   8.249   21.793
O   8.387   3.217   8.029
O   8.387   3.217   21.793
O   8.387   8.249   8.029
O   8.387   8.249   21.793
O   4.894   3.217   1.147
O   4.894   3.217   14.911
O   4.894   8.249   1.147
O   4.894   8.249   14.911
O   9.927   3.217   1.147
O   9.927   3.217   14.911
O   9.927   8.249   1.147
O   9.927   8.249   14.911
O   3.355   0.138   1.147
O   3.355   0.138   14.911
O   3.355   5.170   1.147
O   3.355   5.170   14.911
O   8.387   0.138   1.147
O   8.387   0.138   14.911
O   8.387   5.170   1.147
O   8.387   5.170   14.911
O   1.816   1.677   1.147
O   1.816   1.677   14.911
O   1.816   6.710   1.147
O   1.816   6.710   14.911
O   6.848   1.677   1.147
O   6.848   1.677   14.911
O   6.848   6.710   1.147
O   6.848   6.710   14.911
O   3.217   3.355   12.617
O   3.217   3.355   26.382
O   3.217   8.387   12.617
O   3.217   8.387   26.382
O   8.249   3.355   12.617
O   8.249   3.355   26.382
O   8.249   8.387   12.617
O   8.249   8.387   26.382
O   0.138   1.816   12.617
O   0.138   1.816   26.382
O   0.138   6.848   12.617
O   0.138   6.848   26.382
O   5.170   1.816   12.617
O   5.170   1.816   26.382
O   5.170   6.848   12.617
O   5.170   6.848   26.382
O   1.677   4.894   12.617
O   1.677   4.894   26.382
O   1.677   9.927   12.617
O   1.677   9.927   26.382
O   6.710   4.894   12.617
O   6.710   4.894   26.382
O   6.710   9.927   12.617
O   6.710   9.927   26.382
O   3.217   4.894   5.735
O   3.217   4.894   19.499
O   3.217   9.927   5.735
O   3.217   9.927   19.499
O   8.249   4.894   5.735
O   8.249   4.894   19.499
O   8.249   9.927   5.735
O   8.249   9.927   19.499
O   1.677   1.816   5.735
O   1.677   1.816   19.499
O   1.677   6.848   5.735
O   1.677   6.848   19.499
O   6.710   1.816   5.735
O   6.710   1.816   19.499
O   6.710   6.848   5.735
O   6.710   6.848   19.499
O   0.138   3.355   5.735
O   0.138   3.355   19.499
O   0.138   8.387   5.735
O   0.138   8.387   19.499
O   5.170   3.355   5.735
O   5.170   3.355   19.499
O   5.170   8.387   5.735
O   5.170   8.387   19.499
