448

Fe   1.050   1.050   1.050
Fe   1.050   1.050   9.447
Fe   1.050   9.447   1.050
Fe   1.050   9.447   9.447
Fe   9.447   1.050   1.050
Fe   9.447   1.050   9.447
Fe   9.447   9.447   1.050
Fe   9.447   9.447   9.447
Fe   7.347   3.149   5.248
Fe   7.347   3.149   13.645
Fe   7.347   11.546   5.248
Fe   7.347   11.546   13.645
Fe   15.744   3.149   5.248
Fe   15.744   3.149   13.645
Fe   15.744   11.546   5.248
Fe   15.744   11.546   13.645
Fe   3.149   5.248   7.347
Fe   3.149   5.248   15.744
Fe   3.149   13.645   7.347
Fe   3.149   13.645   15.744
Fe   11.546   5.248   7.347
Fe   11.546   5.248   15.744
Fe   11.546   13.645   7.347
Fe   11.546   13.645   15.744
Fe   5.248   7.347   3.149
Fe   5.248   7.347   11.546
Fe   5.248   15.744   3.149
Fe   5.248   15.744   11.546
Fe   13.645   7.347   3.149
Fe   13.645   7.347   11.546
Fe   13.645   15.744   3.149
Fe   13.645   15.744   11.546
Fe   3.149   7.347   5.248
Fe   3.149   7.347   13.645
Fe   3.149   15.744   5.248
Fe   3.149   15.744   13.645
Fe   11.546   7.347   5.248
Fe   11.546   7.347   13.645
Fe   11.546   15.744   5.248
Fe   11.546   15.744   13.645
Fe   7.347   5.248   3.149
Fe   7.347   5.248   11.546
Fe   7.347   13.645   3.149
Fe   7.347   13.645   11.546
Fe   15.744   5.248   3.149
Fe   15.744   5.248   11.546
Fe   15.744   13.645   3.149
Fe   15.744   13.645   11.546
Fe   5.248   3.149   7.347
Fe   5.248   3.149   15.744
Fe   5.248   11.546   7.347
Fe   5.248   11.546   15.744
Fe   13.645   3.149   7.347
Fe   13.645   3.149   15.744
Fe   13.645   11.546   7.347
Fe   13.645   11.546   15.744
Fe   1.050   5.248   5.248
Fe   1.050   5.248   13.645
Fe   1.050   13.645   5.248
Fe   1.050   13.645   13.645
Fe   9.447   5.248   5.248
Fe   9.447   5.248   13.645
Fe   9.447   13.645   5.248
Fe   9.447   13.645   13.645
Fe   7.347   7.347   1.050
Fe   7.347   7.347   9.447
Fe   7.347   15.744   1.050
Fe   7.347   15.744   9.447
Fe   15.744   7.347   1.050
Fe   15.744   7.347   9.447
Fe   15.744   15.744   1.050
Fe   15.744   15.744   9.447
Fe   3.149   1.050   3.149
Fe   3.149   1.050   11.546
Fe   3.149   9.447   3.149
Fe   3.149   9.447   11.546
Fe   11.546   1.050   3.149
Fe   11.546   1.050   11.546
Fe   11.546   9.447   3.149
Fe   11.546   9.447   11.546
Fe   3.149   3.149   1.050
Fe   3.149   3.149   9.447
Fe   3.149   11.546   1.050
Fe   3.149   11.546   9.447
Fe   11.546   3.149   1.050
Fe   11.546   3.149   9.447
Fe   11.546   11.546   1.050
Fe   11.546   11.546   9.447
Fe   7.347   1.050   7.347
Fe   7.347   1.050   15.744
Fe   7.347   9.447   7.347
Fe   7.347   9.447   15.744
Fe   15.744   1.050   7.347
Fe   15.744   1.050   15.744
Fe   15.744   9.447   7.347
Fe   15.744   9.447   15.744
Fe   5.248   1.050   5.248
Fe   5.248   1.050   13.645
Fe   5.248   9.447   5.248
Fe   5.248   9.447   13.645
Fe   13.645   1.050   5.248
Fe   13.645   1.050   13.645
Fe   13.645   9.447   5.248
Fe   13.645   9.447   13.645
Fe   1.050   7.347   7.347
Fe   1.050   7.347   15.744
Fe   1.050   15.744   7.347
Fe   1.050   15.744   15.744
Fe   9.447   7.347   7.347
Fe   9.447   7.347   15.744
Fe   9.447   15.744   7.347
Fe   9.447   15.744   15.744
Fe   1.050   3.149   3.149
Fe   1.050   3.149   11.546
Fe   1.050   11.546   3.149
Fe   1.050   11.546   11.546
Fe   9.447   3.149   3.149
Fe   9.447   3.149   11.546
Fe   9.447   11.546   3.149
Fe   9.447   11.546   11.546
Fe   5.248   5.248   1.050
Fe   5.248   5.248   9.447
Fe   5.248   13.645   1.050
Fe   5.248   13.645   9.447
Fe   13.645   5.248   1.050
Fe   13.645   5.248   9.447
Fe   13.645   13.645   1.050
Fe   13.645   13.645   9.447
Fe   4.198   4.198   4.198
Fe   4.198   4.198   12.595
Fe   4.198   12.595   4.198
Fe   4.198   12.595   12.595
Fe   12.595   4.198   4.198
Fe   12.595   4.198   12.595
Fe   12.595   12.595   4.198
Fe   12.595   12.595   12.595
Fe   4.198   0.000   0.000
Fe   4.198   0.000   8.397
Fe   4.198   8.397   0.000
Fe   4.198   8.397   8.397
Fe   12.595   0.000   0.000
Fe   12.595   0.000   8.397
Fe   12.595   8.397   0.000
Fe   12.595   8.397   8.397
Fe   0.000   0.000   4.198
Fe   0.000   0.000   12.595
Fe   0.000   8.397   4.198
Fe   0.000   8.397   12.595
Fe   8.397   0.000   4.198
Fe   8.397   0.000   12.595
Fe   8.397   8.397   4.198
Fe   8.397   8.397   12.595
Fe   0.000   4.198   0.000
Fe   0.000   4.198   8.397
Fe   0.000   12.595   0.000
Fe   0.000   12.595   8.397
Fe   8.397   4.198   0.000
Fe   8.397   4.198   8.397
Fe   8.397   12.595   0.000
Fe   8.397   12.595   8.397
Fe   2.099   6.298   2.099
Fe   2.099   6.298   10.496
Fe   2.099   14.695   2.099
Fe   2.099   14.695   10.496
Fe   10.496   6.298   2.099
Fe   10.496   6.298   10.496
Fe   10.496   14.695   2.099
Fe   10.496   14.695   10.496
Fe   6.298   6.298   6.298
Fe   6.298   6.298   14.695
Fe   6.298   14.695   6.298
Fe   6.298   14.695   14.695
Fe   14.695   6.298   6.298
Fe   14.695   6.298   14.695
Fe   14.695   14.695   6.298
Fe   14.695   14.695   14.695
Fe   6.298   2.099   2.099
Fe   6.298   2.099   10.496
Fe   6.298   10.496   2.099
Fe   6.298   10.496   10.496
Fe   14.695   2.099   2.099
Fe   14.695   2.099   10.496
Fe   14.695   10.496   2.099
Fe   14.695   10.496   10.496
Fe   2.099   2.099   6.298
Fe   2.099   2.099   14.695
Fe   2.099   10.496   6.298
Fe   2.099   10.496   14.695
Fe   10.496   2.099   6.298
Fe   10.496   2.099   14.695
Fe   10.496   10.496   6.298
Fe   10.496   10.496   14.695
O   2.139   2.139   2.139
O   2.139   2.139   10.535
O   2.139   10.535   2.139
O   2.139   10.535   10.535
O   10.535   2.139   2.139
O   10.535   2.139   10.535
O   10.535   10.535   2.139
O   10.535   10.535   10.535
O   6.258   2.060   6.337
O   6.258   2.060   14.734
O   6.258   10.457   6.337
O   6.258   10.457   14.734
O   14.655   2.060   6.337
O   14.655   2.060   14.734
O   14.655   10.457   6.337
O   14.655   10.457   14.734
O   2.060   6.337   6.258
O   2.060   6.337   14.655
O   2.060   14.734   6.258
O   2.060   14.734   14.655
O   10.457   6.337   6.258
O   10.457   6.337   14.655
O   10.457   14.734   6.258
O   10.457   14.734   14.655
O   6.337   6.258   2.060
O   6.337   6.258   10.457
O   6.337   14.655   2.060
O   6.337   14.655   10.457
O   14.734   6.258   2.060
O   14.734   6.258   10.457
O   14.734   14.655   2.060
O   14.734   14.655   10.457
O   0.039   4.238   4.159
O   0.039   4.238   12.556
O   0.039   12.635   4.159
O   0.039   12.635   12.556
O   8.436   4.238   4.159
O   8.436   4.238   12.556
O   8.436   12.635   4.159
O   8.436   12.635   12.556
O   8.358   8.358   8.358
O   8.358   8.358   16.755
O   8.358   16.755   8.358
O   8.358   16.755   16.755
O   16.755   8.358   8.358
O   16.755   8.358   16.755
O   16.755   16.755   8.358
O   16.755   16.755   16.755
O   4.238   4.159   0.039
O   4.238   4.159   8.436
O   4.238   12.556   0.039
O   4.238   12.556   8.436
O   12.635   4.159   0.039
O   12.635   4.159   8.436
O   12.635   12.556   0.039
O   12.635   12.556   8.436
O   4.159   0.039   4.238
O   4.159   0.039   12.635
O   4.159   8.436   4.238
O   4.159   8.436   12.635
O   12.556   0.039   4.238
O   12.556   0.039   12.635
O   12.556   8.436   4.238
O   12.556   8.436   12.635
O   4.238   0.039   4.159
O   4.238   0.039   12.556
O   4.238   8.436   4.159
O   4.238   8.436   12.556
O   12.635   0.039   4.159
O   12.635   0.039   12.556
O   12.635   8.436   4.159
O   12.635   8.436   12.556
O   0.039   4.159   4.238
O   0.039   4.159   12.635
O   0.039   12.556   4.238
O   0.039   12.556   12.635
O   8.436   4.159   4.238
O   8.436   4.159   12.635
O   8.436   12.556   4.238
O   8.436   12.556   12.635
O   4.159   4.238   0.039
O   4.159   4.238   8.436
O   4.159   12.635   0.039
O   4.159   12.635   8.436
O   12.556   4.238   0.039
O   12.556   4.238   8.436
O   12.556   12.635   0.039
O   12.556   12.635   8.436
O   2.060   6.258   6.337
O   2.060   6.258   14.734
O   2.060   14.655   6.337
O   2.060   14.655   14.734
O   10.457   6.258   6.337
O   10.457   6.258   14.734
O   10.457   14.655   6.337
O   10.457   14.655   14.734
O   6.258   6.337   2.060
O   6.258   6.337   10.457
O   6.258   14.734   2.060
O   6.258   14.734   10.457
O   14.655   6.337   2.060
O   14.655   6.337   10.457
O   14.655   14.734   2.060
O   14.655   14.734   10.457
O   6.337   2.060   6.258
O   6.337   2.060   14.655
O   6.337   10.457   6.258
O   6.337   10.457   14.655
O   14.734   2.060   6.258
O   14.734   2.060   14.655
O   14.734   10.457   6.258
O   14.734   10.457   14.655
O   2.139   6.337   6.337
O   2.139   6.337   14.734
O   2.139   14.734   6.337
O   2.139   14.734   14.734
O   10.535   6.337   6.337
O   10.535   6.337   14.734
O   10.535   14.734   6.337
O   10.535   14.734   14.734
O   6.258   6.258   2.139
O   6.258   6.258   10.535
O   6.258   14.655   2.139
O   6.258   14.655   10.535
O   14.655   6.258   2.139
O   14.655   6.258   10.535
O   14.655   14.655   2.139
O   14.655   14.655   10.535
O   2.060   2.139   2.060
O   2.060   2.139   10.457
O   2.060   10.535   2.060
O   2.060   10.535   10.457
O   10.457   2.139   2.060
O   10.457   2.139   10.457
O   10.457   10.535   2.060
O   10.457   10.535   10.457
O   0.039   0.039   8.358
O   0.039   0.039   16.755
O   0.039   8.436   8.358
O   0.039   8.436   16.755
O   8.436   0.039   8.358
O   8.436   0.039   16.755
O   8.436   8.436   8.358
O   8.436   8.436   16.755
O   8.358   4.159   4.159
O   8.358   4.159   12.556
O   8.358   12.556   4.159
O   8.358   12.556   12.556
O   16.755   4.159   4.159
O   16.755   4.159   12.556
O   16.755   12.556   4.159
O   16.755   12.556   12.556
O   4.238   8.358   4.238
O   4.238   8.358   12.635
O   4.238   16.755   4.238
O   4.238   16.755   12.635
O   12.635   8.358   4.238
O   12.635   8.358   12.635
O   12.635   16.755   4.238
O   12.635   16.755   12.635
O   4.238   4.238   8.358
O   4.238   4.238   16.755
O   4.238   12.635   8.358
O   4.238   12.635   16.755
O   12.635   4.238   8.358
O   12.635   4.238   16.755
O   12.635   12.635   8.358
O   12.635   12.635   16.755
O   0.039   8.358   0.039
O   0.039   8.358   8.436
O   0.039   16.755   0.039
O   0.039   16.755   8.436
O   8.436   8.358   0.039
O   8.436   8.358   8.436
O   8.436   16.755   0.039
O   8.436   16.755   8.436
O   2.060   2.060   2.139
O   2.060   2.060   10.535
O   2.060   10.457   2.139
O   2.060   10.457   10.535
O   10.457   2.060   2.139
O   10.457   2.060   10.535
O   10.457   10.457   2.139
O   10.457   10.457   10.535
O   6.258   2.139   6.258
O   6.258   2.139   14.655
O   6.258   10.535   6.258
O   6.258   10.535   14.655
O   14.655   2.139   6.258
O   14.655   2.139   14.655
O   14.655   10.535   6.258
O   14.655   10.535   14.655
O   6.337   2.139   6.337
O   6.337   2.139   14.734
O   6.337   10.535   6.337
O   6.337   10.535   14.734
O   14.734   2.139   6.337
O   14.734   2.139   14.734
O   14.734   10.535   6.337
O   14.734   10.535   14.734
O   2.139   6.258   6.258
O   2.139   6.258   14.655
O   2.139   14.655   6.258
O   2.139   14.655   14.655
O   10.535   6.258   6.258
O   10.535   6.258   14.655
O   10.535   14.655   6.258
O   10.535   14.655   14.655
O   4.159   8.358   4.159
O   4.159   8.358   12.556
O   4.159   16.755   4.159
O   4.159   16.755   12.556
O   12.556   8.358   4.159
O   12.556   8.358   12.556
O   12.556   16.755   4.159
O   12.556   16.755   12.556
O   8.358   0.039   0.039
O   8.358   0.039   8.436
O   8.358   8.436   0.039
O   8.358   8.436   8.436
O   16.755   0.039   0.039
O   16.755   0.039   8.436
O   16.755   8.436   0.039
O   16.755   8.436   8.436
O   8.358   4.238   4.238
O   8.358   4.238   12.635
O   8.358   12.635   4.238
O   8.358   12.635   12.635
O   16.755   4.238   4.238
O   16.755   4.238   12.635
O   16.755   12.635   4.238
O   16.755   12.635   12.635
O   2.139   2.060   2.060
O   2.139   2.060   10.457
O   2.139   10.457   2.060
O   2.139   10.457   10.457
O   10.535   2.060   2.060
O   10.535   2.060   10.457
O   10.535   10.457   2.060
O   10.535   10.457   10.457
O   6.337   6.337   2.139
O   6.337   6.337   10.535
O   6.337   14.734   2.139
O   6.337   14.734   10.535
O   14.734   6.337   2.139
O   14.734   6.337   10.535
O   14.734   14.734   2.139
O   14.734   14.734   10.535
O   4.159   4.159   8.358
O   4.159   4.159   16.755
O   4.159   12.556   8.358
O   4.159   12.556   16.755
O   12.556   4.159   8.358
O   12.556   4.159   16.755
O   12.556   12.556   8.358
O   12.556   12.556   16.755
