448

Fe   2.035   4.203   1.082
Fe   2.035   4.203   9.404
Fe   2.035   12.543   1.082
Fe   2.035   12.543   9.404
Fe   10.374   4.203   1.082
Fe   10.374   4.203   9.404
Fe   10.374   12.543   1.082
Fe   10.374   12.543   9.404
Fe   6.305   4.136   5.243
Fe   6.305   4.136   13.565
Fe   6.305   12.476   5.243
Fe   6.305   12.476   13.565
Fe   14.644   4.136   5.243
Fe   14.644   4.136   13.565
Fe   14.644   12.476   5.243
Fe   14.644   12.476   13.565
Fe   0.033   2.135   3.162
Fe   0.033   2.135   11.484
Fe   0.033   10.475   3.162
Fe   0.033   10.475   11.484
Fe   8.373   2.135   3.162
Fe   8.373   2.135   11.484
Fe   8.373   10.475   3.162
Fe   8.373   10.475   11.484
Fe   8.306   6.205   7.323
Fe   8.306   6.205   15.645
Fe   8.306   14.544   7.323
Fe   8.306   14.544   15.645
Fe   16.646   6.205   7.323
Fe   16.646   6.205   15.645
Fe   16.646   14.544   7.323
Fe   16.646   14.544   15.645
Fe   4.136   6.305   3.079
Fe   4.136   6.305   11.401
Fe   4.136   14.644   3.079
Fe   4.136   14.644   11.401
Fe   12.476   6.305   3.079
Fe   12.476   6.305   11.401
Fe   12.476   14.644   3.079
Fe   12.476   14.644   11.401
Fe   4.203   2.035   7.240
Fe   4.203   2.035   15.562
Fe   4.203   10.374   7.240
Fe   4.203   10.374   15.562
Fe   12.543   2.035   7.240
Fe   12.543   2.035   15.562
Fe   12.543   10.374   7.240
Fe   12.543   10.374   15.562
Fe   2.135   0.033   5.160
Fe   2.135   0.033   13.482
Fe   2.135   8.373   5.160
Fe   2.135   8.373   13.482
Fe   10.475   0.033   5.160
Fe   10.475   0.033   13.482
Fe   10.475   8.373   5.160
Fe   10.475   8.373   13.482
Fe   6.205   8.306   0.999
Fe   6.205   8.306   9.321
Fe   6.205   16.646   0.999
Fe   6.205   16.646   9.321
Fe   14.544   8.306   0.999
Fe   14.544   8.306   9.321
Fe   14.544   16.646   0.999
Fe   14.544   16.646   9.321
Fe   1.001   7.339   2.080
Fe   1.001   7.339   10.402
Fe   1.001   15.678   2.080
Fe   1.001   15.678   10.402
Fe   9.340   7.339   2.080
Fe   9.340   7.339   10.402
Fe   9.340   15.678   2.080
Fe   9.340   15.678   10.402
Fe   7.339   1.001   6.241
Fe   7.339   1.001   14.563
Fe   7.339   9.340   6.241
Fe   7.339   9.340   14.563
Fe   15.678   1.001   6.241
Fe   15.678   1.001   14.563
Fe   15.678   9.340   6.241
Fe   15.678   9.340   14.563
Fe   3.169   3.169   4.161
Fe   3.169   3.169   12.483
Fe   3.169   11.509   4.161
Fe   3.169   11.509   12.483
Fe   11.509   3.169   4.161
Fe   11.509   3.169   12.483
Fe   11.509   11.509   4.161
Fe   11.509   11.509   12.483
Fe   5.171   5.171   0.000
Fe   5.171   5.171   8.322
Fe   5.171   13.510   0.000
Fe   5.171   13.510   8.322
Fe   13.510   5.171   0.000
Fe   13.510   5.171   8.322
Fe   13.510   13.510   0.000
Fe   13.510   13.510   8.322
Fe   7.205   5.279   2.214
Fe   7.205   5.279   10.536
Fe   7.205   13.619   2.214
Fe   7.205   13.619   10.536
Fe   15.545   5.279   2.214
Fe   15.545   5.279   10.536
Fe   15.545   13.619   2.214
Fe   15.545   13.619   10.536
Fe   1.134   3.061   6.375
Fe   1.134   3.061   14.697
Fe   1.134   11.400   6.375
Fe   1.134   11.400   14.697
Fe   9.474   3.061   6.375
Fe   9.474   3.061   14.697
Fe   9.474   11.400   6.375
Fe   9.474   11.400   14.697
Fe   1.109   5.304   4.294
Fe   1.109   5.304   12.616
Fe   1.109   13.644   4.294
Fe   1.109   13.644   12.616
Fe   9.449   5.304   4.294
Fe   9.449   5.304   12.616
Fe   9.449   13.644   4.294
Fe   9.449   13.644   12.616
Fe   7.230   3.036   0.133
Fe   7.230   3.036   8.455
Fe   7.230   11.375   0.133
Fe   7.230   11.375   8.455
Fe   15.570   3.036   0.133
Fe   15.570   3.036   8.455
Fe   15.570   11.375   0.133
Fe   15.570   11.375   8.455
Fe   3.061   1.134   1.947
Fe   3.061   1.134   10.269
Fe   3.061   9.474   1.947
Fe   3.061   9.474   10.269
Fe   11.400   1.134   1.947
Fe   11.400   1.134   10.269
Fe   11.400   9.474   1.947
Fe   11.400   9.474   10.269
Fe   5.279   7.205   6.108
Fe   5.279   7.205   14.430
Fe   5.279   15.545   6.108
Fe   5.279   15.545   14.430
Fe   13.619   7.205   6.108
Fe   13.619   7.205   14.430
Fe   13.619   15.545   6.108
Fe   13.619   15.545   14.430
Fe   5.304   1.109   4.028
Fe   5.304   1.109   12.350
Fe   5.304   9.449   4.028
Fe   5.304   9.449   12.350
Fe   13.644   1.109   4.028
Fe   13.644   1.109   12.350
Fe   13.644   9.449   4.028
Fe   13.644   9.449   12.350
Fe   3.036   7.230   8.189
Fe   3.036   7.230   16.511
Fe   3.036   15.570   8.189
Fe   3.036   15.570   16.511
Fe   11.375   7.230   8.189
Fe   11.375   7.230   16.511
Fe   11.375   15.570   8.189
Fe   11.375   15.570   16.511
Fe   5.337   3.002   2.080
Fe   5.337   3.002   10.402
Fe   5.337   11.342   2.080
Fe   5.337   11.342   10.402
Fe   13.677   3.002   2.080
Fe   13.677   3.002   10.402
Fe   13.677   11.342   2.080
Fe   13.677   11.342   10.402
Fe   3.002   5.337   6.241
Fe   3.002   5.337   14.563
Fe   3.002   13.677   6.241
Fe   3.002   13.677   14.563
Fe   11.342   5.337   6.241
Fe   11.342   5.337   14.563
Fe   11.342   13.677   6.241
Fe   11.342   13.677   14.563
Fe   7.172   7.172   4.161
Fe   7.172   7.172   12.483
Fe   7.172   15.512   4.161
Fe   7.172   15.512   12.483
Fe   15.512   7.172   4.161
Fe   15.512   7.172   12.483
Fe   15.512   15.512   4.161
Fe   15.512   15.512   12.483
Fe   1.168   1.168   0.000
Fe   1.168   1.168   8.322
Fe   1.168   9.507   0.000
Fe   1.168   9.507   8.322
Fe   9.507   1.168   0.000
Fe   9.507   1.168   8.322
Fe   9.507   9.507   0.000
Fe   9.507   9.507   8.322
O   0.959   5.262   2.197
O   0.959   5.262   10.519
O   0.959   13.602   2.197
O   0.959   13.602   10.519
O   9.299   5.262   2.197
O   9.299   5.262   10.519
O   9.299   13.602   2.197
O   9.299   13.602   10.519
O   7.381   3.077   6.358
O   7.381   3.077   14.680
O   7.381   11.417   6.358
O   7.381   11.417   14.680
O   15.720   3.077   6.358
O   15.720   3.077   14.680
O   15.720   11.417   6.358
O   15.720   11.417   14.680
O   1.092   3.211   4.278
O   1.092   3.211   12.600
O   1.092   11.550   4.278
O   1.092   11.550   12.600
O   9.432   3.211   4.278
O   9.432   3.211   12.600
O   9.432   11.550   4.278
O   9.432   11.550   12.600
O   7.247   5.129   0.117
O   7.247   5.129   8.439
O   7.247   13.468   0.117
O   7.247   13.468   8.439
O   15.587   5.129   0.117
O   15.587   5.129   8.439
O   15.587   13.468   0.117
O   15.587   13.468   8.439
O   3.077   7.381   1.964
O   3.077   7.381   10.286
O   3.077   15.720   1.964
O   3.077   15.720   10.286
O   11.417   7.381   1.964
O   11.417   7.381   10.286
O   11.417   15.720   1.964
O   11.417   15.720   10.286
O   5.262   0.959   6.125
O   5.262   0.959   14.447
O   5.262   9.299   6.125
O   5.262   9.299   14.447
O   13.602   0.959   6.125
O   13.602   0.959   14.447
O   13.602   9.299   6.125
O   13.602   9.299   14.447
O   3.211   1.092   4.044
O   3.211   1.092   12.366
O   3.211   9.432   4.044
O   3.211   9.432   12.366
O   11.550   1.092   4.044
O   11.550   1.092   12.366
O   11.550   9.432   4.044
O   11.550   9.432   12.366
O   5.129   7.247   8.205
O   5.129   7.247   16.527
O   5.129   15.587   8.205
O   5.129   15.587   16.527
O   13.468   7.247   8.205
O   13.468   7.247   16.527
O   13.468   15.587   8.205
O   13.468   15.587   16.527
O   5.162   1.026   2.122
O   5.162   1.026   10.444
O   5.162   9.365   2.122
O   5.162   9.365   10.444
O   13.502   1.026   2.122
O   13.502   1.026   10.444
O   13.502   9.365   2.122
O   13.502   9.365   10.444
O   3.177   7.314   6.283
O   3.177   7.314   14.605
O   3.177   15.653   6.283
O   3.177   15.653   14.605
O   11.517   7.314   6.283
O   11.517   7.314   14.605
O   11.517   15.653   6.283
O   11.517   15.653   14.605
O   5.196   7.347   4.203
O   5.196   7.347   12.525
O   5.196   15.687   4.203
O   5.196   15.687   12.525
O   13.535   7.347   4.203
O   13.535   7.347   12.525
O   13.535   15.687   4.203
O   13.535   15.687   12.525
O   3.144   0.992   0.042
O   3.144   0.992   8.364
O   3.144   9.332   0.042
O   3.144   9.332   8.364
O   11.484   0.992   0.042
O   11.484   0.992   8.364
O   11.484   9.332   0.042
O   11.484   9.332   8.364
O   7.314   3.177   2.039
O   7.314   3.177   10.361
O   7.314   11.517   2.039
O   7.314   11.517   10.361
O   15.653   3.177   2.039
O   15.653   3.177   10.361
O   15.653   11.517   2.039
O   15.653   11.517   10.361
O   1.026   5.162   6.200
O   1.026   5.162   14.522
O   1.026   13.502   6.200
O   1.026   13.502   14.522
O   9.365   5.162   6.200
O   9.365   5.162   14.522
O   9.365   13.502   6.200
O   9.365   13.502   14.522
O   7.347   5.196   4.119
O   7.347   5.196   12.441
O   7.347   13.535   4.119
O   7.347   13.535   12.441
O   15.687   5.196   4.119
O   15.687   5.196   12.441
O   15.687   13.535   4.119
O   15.687   13.535   12.441
O   0.992   3.144   8.280
O   0.992   3.144   16.602
O   0.992   11.484   8.280
O   0.992   11.484   16.602
O   9.332   3.144   8.280
O   9.332   3.144   16.602
O   9.332   11.484   8.280
O   9.332   11.484   16.602
O   5.312   5.329   2.022
O   5.312   5.329   10.344
O   5.312   13.669   2.022
O   5.312   13.669   10.344
O   13.652   5.329   2.022
O   13.652   5.329   10.344
O   13.652   13.669   2.022
O   13.652   13.669   10.344
O   3.027   3.011   6.183
O   3.027   3.011   14.505
O   3.027   11.350   6.183
O   3.027   11.350   14.505
O   11.367   3.011   6.183
O   11.367   3.011   14.505
O   11.367   11.350   6.183
O   11.367   11.350   14.505
O   1.159   7.197   4.103
O   1.159   7.197   12.425
O   1.159   15.537   4.103
O   1.159   15.537   12.425
O   9.499   7.197   4.103
O   9.499   7.197   12.425
O   9.499   15.537   4.103
O   9.499   15.537   12.425
O   7.180   1.143   8.264
O   7.180   1.143   16.586
O   7.180   9.482   8.264
O   7.180   9.482   16.586
O   15.520   1.143   8.264
O   15.520   1.143   16.586
O   15.520   9.482   8.264
O   15.520   9.482   16.586
O   3.011   3.027   2.139
O   3.011   3.027   10.461
O   3.011   11.367   2.139
O   3.011   11.367   10.461
O   11.350   3.027   2.139
O   11.350   3.027   10.461
O   11.350   11.367   2.139
O   11.350   11.367   10.461
O   5.329   5.312   6.300
O   5.329   5.312   14.622
O   5.329   13.652   6.300
O   5.329   13.652   14.622
O   13.669   5.312   6.300
O   13.669   5.312   14.622
O   13.669   13.652   6.300
O   13.669   13.652   14.622
O   7.197   1.159   4.219
O   7.197   1.159   12.541
O   7.197   9.499   4.219
O   7.197   9.499   12.541
O   15.537   1.159   4.219
O   15.537   1.159   12.541
O   15.537   9.499   4.219
O   15.537   9.499   12.541
O   1.143   7.180   0.058
O   1.143   7.180   8.380
O   1.143   15.520   0.058
O   1.143   15.520   8.380
O   9.482   7.180   0.058
O   9.482   7.180   8.380
O   9.482   15.520   0.058
O   9.482   15.520   8.380
O   7.364   7.247   2.105
O   7.364   7.247   10.427
O   7.364   15.587   2.105
O   7.364   15.587   10.427
O   15.703   7.247   2.105
O   15.703   7.247   10.427
O   15.703   15.587   2.105
O   15.703   15.587   10.427
O   0.976   1.092   6.266
O   0.976   1.092   14.588
O   0.976   9.432   6.266
O   0.976   9.432   14.588
O   9.315   1.092   6.266
O   9.315   1.092   14.588
O   9.315   9.432   6.266
O   9.315   9.432   14.588
O   3.077   5.146   4.186
O   3.077   5.146   12.508
O   3.077   13.485   4.186
O   3.077   13.485   12.508
O   11.417   5.146   4.186
O   11.417   5.146   12.508
O   11.417   13.485   4.186
O   11.417   13.485   12.508
O   5.262   3.194   0.025
O   5.262   3.194   8.347
O   5.262   11.534   0.025
O   5.262   11.534   8.347
O   13.602   3.194   0.025
O   13.602   3.194   8.347
O   13.602   11.534   0.025
O   13.602   11.534   8.347
O   1.092   0.976   2.056
O   1.092   0.976   10.378
O   1.092   9.315   2.056
O   1.092   9.315   10.378
O   9.432   0.976   2.056
O   9.432   0.976   10.378
O   9.432   9.315   2.056
O   9.432   9.315   10.378
O   7.247   7.364   6.217
O   7.247   7.364   14.539
O   7.247   15.703   6.217
O   7.247   15.703   14.539
O   15.587   7.364   6.217
O   15.587   7.364   14.539
O   15.587   15.703   6.217
O   15.587   15.703   14.539
O   5.146   3.077   4.136
O   5.146   3.077   12.458
O   5.146   11.417   4.136
O   5.146   11.417   12.458
O   13.485   3.077   4.136
O   13.485   3.077   12.458
O   13.485   11.417   4.136
O   13.485   11.417   12.458
O   3.194   5.262   8.297
O   3.194   5.262   16.619
O   3.194   13.602   8.297
O   3.194   13.602   16.619
O   11.534   5.262   8.297
O   11.534   5.262   16.619
O   11.534   13.602   8.297
O   11.534   13.602   16.619
