1168

Si   0.000   0.000   0.000
Si   0.000   0.000   12.706
Si   0.000   14.642   0.000
Si   0.000   14.642   12.706
Si   14.642   0.000   0.000
Si   14.642   0.000   12.706
Si   14.642   14.642   0.000
Si   14.642   14.642   12.706
Si   7.321   7.321   6.353
Si   7.321   7.321   19.059
Si   7.321   21.963   6.353
Si   7.321   21.963   19.059
Si   21.963   7.321   6.353
Si   21.963   7.321   19.059
Si   21.963   21.963   6.353
Si   21.963   21.963   19.059
W   13.235   2.081   3.873
W   13.235   2.081   16.579
W   13.235   16.723   3.873
W   13.235   16.723   16.579
W   27.877   2.081   3.873
W   27.877   2.081   16.579
W   27.877   16.723   3.873
W   27.877   16.723   16.579
W   1.407   12.561   3.873
W   1.407   12.561   16.579
W   1.407   27.203   3.873
W   1.407   27.203   16.579
W   16.049   12.561   3.873
W   16.049   12.561   16.579
W   16.049   27.203   3.873
W   16.049   27.203   16.579
W   12.561   13.235   8.833
W   12.561   13.235   21.539
W   12.561   27.877   8.833
W   12.561   27.877   21.539
W   27.203   13.235   8.833
W   27.203   13.235   21.539
W   27.203   27.877   8.833
W   27.203   27.877   21.539
W   2.081   1.407   8.833
W   2.081   1.407   21.539
W   2.081   16.049   8.833
W   2.081   16.049   21.539
W   16.723   1.407   8.833
W   16.723   1.407   21.539
W   16.723   16.049   8.833
W   16.723   16.049   21.539
W   5.914   9.402   10.226
W   5.914   9.402   22.932
W   5.914   24.044   10.226
W   5.914   24.044   22.932
W   20.556   9.402   10.226
W   20.556   9.402   22.932
W   20.556   24.044   10.226
W   20.556   24.044   22.932
W   8.728   5.240   10.226
W   8.728   5.240   22.932
W   8.728   19.882   10.226
W   8.728   19.882   22.932
W   23.370   5.240   10.226
W   23.370   5.240   22.932
W   23.370   19.882   10.226
W   23.370   19.882   22.932
W   5.240   5.914   2.480
W   5.240   5.914   15.186
W   5.240   20.556   2.480
W   5.240   20.556   15.186
W   19.882   5.914   2.480
W   19.882   5.914   15.186
W   19.882   20.556   2.480
W   19.882   20.556   15.186
W   9.402   8.728   2.480
W   9.402   8.728   15.186
W   9.402   23.370   2.480
W   9.402   23.370   15.186
W   24.044   8.728   2.480
W   24.044   8.728   15.186
W   24.044   23.370   2.480
W   24.044   23.370   15.186
W   12.472   13.429   3.858
W   12.472   13.429   16.564
W   12.472   28.071   3.858
W   12.472   28.071   16.564
W   27.114   13.429   3.858
W   27.114   13.429   16.564
W   27.114   28.071   3.858
W   27.114   28.071   16.564
W   2.170   1.213   3.858
W   2.170   1.213   16.564
W   2.170   15.855   3.858
W   2.170   15.855   16.564
W   16.812   1.213   3.858
W   16.812   1.213   16.564
W   16.812   15.855   3.858
W   16.812   15.855   16.564
W   1.213   12.472   8.848
W   1.213   12.472   21.554
W   1.213   27.114   8.848
W   1.213   27.114   21.554
W   15.855   12.472   8.848
W   15.855   12.472   21.554
W   15.855   27.114   8.848
W   15.855   27.114   21.554
W   13.429   2.170   8.848
W   13.429   2.170   21.554
W   13.429   16.812   8.848
W   13.429   16.812   21.554
W   28.071   2.170   8.848
W   28.071   2.170   21.554
W   28.071   16.812   8.848
W   28.071   16.812   21.554
W   5.151   6.108   10.211
W   5.151   6.108   22.917
W   5.151   20.750   10.211
W   5.151   20.750   22.917
W   19.793   6.108   10.211
W   19.793   6.108   22.917
W   19.793   20.750   10.211
W   19.793   20.750   22.917
W   9.491   8.534   10.211
W   9.491   8.534   22.917
W   9.491   23.176   10.211
W   9.491   23.176   22.917
W   24.133   8.534   10.211
W   24.133   8.534   22.917
W   24.133   23.176   10.211
W   24.133   23.176   22.917
W   8.534   5.151   2.495
W   8.534   5.151   15.201
W   8.534   19.793   2.495
W   8.534   19.793   15.201
W   23.176   5.151   2.495
W   23.176   5.151   15.201
W   23.176   19.793   2.495
W   23.176   19.793   15.201
W   6.108   9.491   2.495
W   6.108   9.491   15.201
W   6.108   24.133   2.495
W   6.108   24.133   15.201
W   20.750   9.491   2.495
W   20.750   9.491   15.201
W   20.750   24.133   2.495
W   20.750   24.133   15.201
W   11.206   0.822   6.250
W   11.206   0.822   18.956
W   11.206   15.464   6.250
W   11.206   15.464   18.956
W   25.848   0.822   6.250
W   25.848   0.822   18.956
W   25.848   15.464   6.250
W   25.848   15.464   18.956
W   3.436   13.820   6.250
W   3.436   13.820   18.956
W   3.436   28.462   6.250
W   3.436   28.462   18.956
W   18.078   13.820   6.250
W   18.078   13.820   18.956
W   18.078   28.462   6.250
W   18.078   28.462   18.956
W   13.820   11.206   6.456
W   13.820   11.206   19.162
W   13.820   25.848   6.456
W   13.820   25.848   19.162
W   28.462   11.206   6.456
W   28.462   11.206   19.162
W   28.462   25.848   6.456
W   28.462   25.848   19.162
W   0.822   3.436   6.456
W   0.822   3.436   19.162
W   0.822   18.078   6.456
W   0.822   18.078   19.162
W   15.464   3.436   6.456
W   15.464   3.436   19.162
W   15.464   18.078   6.456
W   15.464   18.078   19.162
W   3.885   8.143   12.603
W   3.885   8.143   25.309
W   3.885   22.785   12.603
W   3.885   22.785   25.309
W   18.527   8.143   12.603
W   18.527   8.143   25.309
W   18.527   22.785   12.603
W   18.527   22.785   25.309
W   10.757   6.499   12.603
W   10.757   6.499   25.309
W   10.757   21.141   12.603
W   10.757   21.141   25.309
W   25.399   6.499   12.603
W   25.399   6.499   25.309
W   25.399   21.141   12.603
W   25.399   21.141   25.309
W   6.499   3.885   0.103
W   6.499   3.885   12.809
W   6.499   18.527   0.103
W   6.499   18.527   12.809
W   21.141   3.885   0.103
W   21.141   3.885   12.809
W   21.141   18.527   0.103
W   21.141   18.527   12.809
W   8.143   10.757   0.103
W   8.143   10.757   12.809
W   8.143   25.399   0.103
W   8.143   25.399   12.809
W   22.785   10.757   0.103
W   22.785   10.757   12.809
W   22.785   25.399   0.103
W   22.785   25.399   12.809
O   12.812   3.251   2.706
O   12.812   3.251   15.412
O   12.812   17.893   2.706
O   12.812   17.893   15.412
O   27.454   3.251   2.706
O   27.454   3.251   15.412
O   27.454   17.893   2.706
O   27.454   17.893   15.412
O   1.830   11.391   2.706
O   1.830   11.391   15.412
O   1.830   26.033   2.706
O   1.830   26.033   15.412
O   16.472   11.391   2.706
O   16.472   11.391   15.412
O   16.472   26.033   2.706
O   16.472   26.033   15.412
O   11.391   12.812   10.000
O   11.391   12.812   22.706
O   11.391   27.454   10.000
O   11.391   27.454   22.706
O   26.033   12.812   10.000
O   26.033   12.812   22.706
O   26.033   27.454   10.000
O   26.033   27.454   22.706
O   3.251   1.830   10.000
O   3.251   1.830   22.706
O   3.251   16.472   10.000
O   3.251   16.472   22.706
O   17.893   1.830   10.000
O   17.893   1.830   22.706
O   17.893   16.472   10.000
O   17.893   16.472   22.706
O   5.491   10.572   9.059
O   5.491   10.572   21.765
O   5.491   25.214   9.059
O   5.491   25.214   21.765
O   20.133   10.572   9.059
O   20.133   10.572   21.765
O   20.133   25.214   9.059
O   20.133   25.214   21.765
O   9.151   4.070   9.059
O   9.151   4.070   21.765
O   9.151   18.712   9.059
O   9.151   18.712   21.765
O   23.793   4.070   9.059
O   23.793   4.070   21.765
O   23.793   18.712   9.059
O   23.793   18.712   21.765
O   4.070   5.491   3.647
O   4.070   5.491   16.353
O   4.070   20.133   3.647
O   4.070   20.133   16.353
O   18.712   5.491   3.647
O   18.712   5.491   16.353
O   18.712   20.133   3.647
O   18.712   20.133   16.353
O   10.572   9.151   3.647
O   10.572   9.151   16.353
O   10.572   23.793   3.647
O   10.572   23.793   16.353
O   25.214   9.151   3.647
O   25.214   9.151   16.353
O   25.214   23.793   3.647
O   25.214   23.793   16.353
O   11.626   12.519   2.630
O   11.626   12.519   15.336
O   11.626   27.161   2.630
O   11.626   27.161   15.336
O   26.268   12.519   2.630
O   26.268   12.519   15.336
O   26.268   27.161   2.630
O   26.268   27.161   15.336
O   3.016   2.123   2.630
O   3.016   2.123   15.336
O   3.016   16.765   2.630
O   3.016   16.765   15.336
O   17.658   2.123   2.630
O   17.658   2.123   15.336
O   17.658   16.765   2.630
O   17.658   16.765   15.336
O   2.123   11.626   10.076
O   2.123   11.626   22.782
O   2.123   26.268   10.076
O   2.123   26.268   22.782
O   16.765   11.626   10.076
O   16.765   11.626   22.782
O   16.765   26.268   10.076
O   16.765   26.268   22.782
O   12.519   3.016   10.076
O   12.519   3.016   22.782
O   12.519   17.658   10.076
O   12.519   17.658   22.782
O   27.161   3.016   10.076
O   27.161   3.016   22.782
O   27.161   17.658   10.076
O   27.161   17.658   22.782
O   4.305   5.198   8.983
O   4.305   5.198   21.689
O   4.305   19.840   8.983
O   4.305   19.840   21.689
O   18.947   5.198   8.983
O   18.947   5.198   21.689
O   18.947   19.840   8.983
O   18.947   19.840   21.689
O   10.337   9.444   8.983
O   10.337   9.444   21.689
O   10.337   24.086   8.983
O   10.337   24.086   21.689
O   24.979   9.444   8.983
O   24.979   9.444   21.689
O   24.979   24.086   8.983
O   24.979   24.086   21.689
O   9.444   4.305   3.723
O   9.444   4.305   16.429
O   9.444   18.947   3.723
O   9.444   18.947   16.429
O   24.086   4.305   3.723
O   24.086   4.305   16.429
O   24.086   18.947   3.723
O   24.086   18.947   16.429
O   5.198   10.337   3.723
O   5.198   10.337   16.429
O   5.198   24.979   3.723
O   5.198   24.979   16.429
O   19.840   10.337   3.723
O   19.840   10.337   16.429
O   19.840   24.979   3.723
O   19.840   24.979   16.429
O   9.312   1.157   6.518
O   9.312   1.157   19.224
O   9.312   15.799   6.518
O   9.312   15.799   19.224
O   23.954   1.157   6.518
O   23.954   1.157   19.224
O   23.954   15.799   6.518
O   23.954   15.799   19.224
O   5.330   13.485   6.518
O   5.330   13.485   19.224
O   5.330   28.127   6.518
O   5.330   28.127   19.224
O   19.972   13.485   6.518
O   19.972   13.485   19.224
O   19.972   28.127   6.518
O   19.972   28.127   19.224
O   13.485   9.312   6.188
O   13.485   9.312   18.894
O   13.485   23.954   6.188
O   13.485   23.954   18.894
O   28.127   9.312   6.188
O   28.127   9.312   18.894
O   28.127   23.954   6.188
O   28.127   23.954   18.894
O   1.157   5.330   6.188
O   1.157   5.330   18.894
O   1.157   19.972   6.188
O   1.157   19.972   18.894
O   15.799   5.330   6.188
O   15.799   5.330   18.894
O   15.799   19.972   6.188
O   15.799   19.972   18.894
O   1.991   8.478   0.165
O   1.991   8.478   12.871
O   1.991   23.120   0.165
O   1.991   23.120   12.871
O   16.633   8.478   0.165
O   16.633   8.478   12.871
O   16.633   23.120   0.165
O   16.633   23.120   12.871
O   12.651   6.164   0.165
O   12.651   6.164   12.871
O   12.651   20.806   0.165
O   12.651   20.806   12.871
O   27.293   6.164   0.165
O   27.293   6.164   12.871
O   27.293   20.806   0.165
O   27.293   20.806   12.871
O   6.164   1.991   12.541
O   6.164   1.991   25.247
O   6.164   16.633   12.541
O   6.164   16.633   25.247
O   20.806   1.991   12.541
O   20.806   1.991   25.247
O   20.806   16.633   12.541
O   20.806   16.633   25.247
O   8.478   12.651   12.541
O   8.478   12.651   25.247
O   8.478   27.293   12.541
O   8.478   27.293   25.247
O   23.120   12.651   12.541
O   23.120   12.651   25.247
O   23.120   27.293   12.541
O   23.120   27.293   25.247
O   14.276   13.134   3.494
O   14.276   13.134   16.200
O   14.276   27.776   3.494
O   14.276   27.776   16.200
O   28.918   13.134   3.494
O   28.918   13.134   16.200
O   28.918   27.776   3.494
O   28.918   27.776   16.200
O   0.366   1.508   3.494
O   0.366   1.508   16.200
O   0.366   16.150   3.494
O   0.366   16.150   16.200
O   15.008   1.508   3.494
O   15.008   1.508   16.200
O   15.008   16.150   3.494
O   15.008   16.150   16.200
O   1.508   14.276   9.212
O   1.508   14.276   21.918
O   1.508   28.918   9.212
O   1.508   28.918   21.918
O   16.150   14.276   9.212
O   16.150   14.276   21.918
O   16.150   28.918   9.212
O   16.150   28.918   21.918
O   13.134   0.366   9.212
O   13.134   0.366   21.918
O   13.134   15.008   9.212
O   13.134   15.008   21.918
O   27.776   0.366   9.212
O   27.776   0.366   21.918
O   27.776   15.008   9.212
O   27.776   15.008   21.918
O   6.955   5.813   9.847
O   6.955   5.813   22.553
O   6.955   20.455   9.847
O   6.955   20.455   22.553
O   21.597   5.813   9.847
O   21.597   5.813   22.553
O   21.597   20.455   9.847
O   21.597   20.455   22.553
O   7.687   8.829   9.847
O   7.687   8.829   22.553
O   7.687   23.471   9.847
O   7.687   23.471   22.553
O   22.329   8.829   9.847
O   22.329   8.829   22.553
O   22.329   23.471   9.847
O   22.329   23.471   22.553
O   8.829   6.955   2.859
O   8.829   6.955   15.565
O   8.829   21.597   2.859
O   8.829   21.597   15.565
O   23.471   6.955   2.859
O   23.471   6.955   15.565
O   23.471   21.597   2.859
O   23.471   21.597   15.565
O   5.813   7.687   2.859
O   5.813   7.687   15.565
O   5.813   22.329   2.859
O   5.813   22.329   15.565
O   20.455   7.687   2.859
O   20.455   7.687   15.565
O   20.455   22.329   2.859
O   20.455   22.329   15.565
O   14.042   3.104   5.235
O   14.042   3.104   17.941
O   14.042   17.746   5.235
O   14.042   17.746   17.941
O   28.684   3.104   5.235
O   28.684   3.104   17.941
O   28.684   17.746   5.235
O   28.684   17.746   17.941
O   0.600   11.538   5.235
O   0.600   11.538   17.941
O   0.600   26.180   5.235
O   0.600   26.180   17.941
O   15.242   11.538   5.235
O   15.242   11.538   17.941
O   15.242   26.180   5.235
O   15.242   26.180   17.941
O   11.538   14.042   7.471
O   11.538   14.042   20.177
O   11.538   28.684   7.471
O   11.538   28.684   20.177
O   26.180   14.042   7.471
O   26.180   14.042   20.177
O   26.180   28.684   7.471
O   26.180   28.684   20.177
O   3.104   0.600   7.471
O   3.104   0.600   20.177
O   3.104   15.242   7.471
O   3.104   15.242   20.177
O   17.746   0.600   7.471
O   17.746   0.600   20.177
O   17.746   15.242   7.471
O   17.746   15.242   20.177
O   6.721   10.425   11.588
O   6.721   10.425   24.294
O   6.721   25.067   11.588
O   6.721   25.067   24.294
O   21.363   10.425   11.588
O   21.363   10.425   24.294
O   21.363   25.067   11.588
O   21.363   25.067   24.294
O   7.921   4.217   11.588
O   7.921   4.217   24.294
O   7.921   18.859   11.588
O   7.921   18.859   24.294
O   22.563   4.217   11.588
O   22.563   4.217   24.294
O   22.563   18.859   11.588
O   22.563   18.859   24.294
O   4.217   6.721   1.118
O   4.217   6.721   13.824
O   4.217   21.363   1.118
O   4.217   21.363   13.824
O   18.859   6.721   1.118
O   18.859   6.721   13.824
O   18.859   21.363   1.118
O   18.859   21.363   13.824
O   10.425   7.921   1.118
O   10.425   7.921   13.824
O   10.425   22.563   1.118
O   10.425   22.563   13.824
O   25.067   7.921   1.118
O   25.067   7.921   13.824
O   25.067   22.563   1.118
O   25.067   22.563   13.824
O   12.577   0.454   2.973
O   12.577   0.454   15.679
O   12.577   15.096   2.973
O   12.577   15.096   15.679
O   27.219   0.454   2.973
O   27.219   0.454   15.679
O   27.219   15.096   2.973
O   27.219   15.096   15.679
O   2.065   14.188   2.973
O   2.065   14.188   15.679
O   2.065   28.830   2.973
O   2.065   28.830   15.679
O   16.707   14.188   2.973
O   16.707   14.188   15.679
O   16.707   28.830   2.973
O   16.707   28.830   15.679
O   14.188   12.577   9.733
O   14.188   12.577   22.439
O   14.188   27.219   9.733
O   14.188   27.219   22.439
O   28.830   12.577   9.733
O   28.830   12.577   22.439
O   28.830   27.219   9.733
O   28.830   27.219   22.439
O   0.454   2.065   9.733
O   0.454   2.065   22.439
O   0.454   16.707   9.733
O   0.454   16.707   22.439
O   15.096   2.065   9.733
O   15.096   2.065   22.439
O   15.096   16.707   9.733
O   15.096   16.707   22.439
O   5.256   7.775   9.326
O   5.256   7.775   22.032
O   5.256   22.417   9.326
O   5.256   22.417   22.032
O   19.898   7.775   9.326
O   19.898   7.775   22.032
O   19.898   22.417   9.326
O   19.898   22.417   22.032
O   9.386   6.867   9.326
O   9.386   6.867   22.032
O   9.386   21.509   9.326
O   9.386   21.509   22.032
O   24.028   6.867   9.326
O   24.028   6.867   22.032
O   24.028   21.509   9.326
O   24.028   21.509   22.032
O   6.867   5.256   3.380
O   6.867   5.256   16.086
O   6.867   19.898   3.380
O   6.867   19.898   16.086
O   21.509   5.256   3.380
O   21.509   5.256   16.086
O   21.509   19.898   3.380
O   21.509   19.898   16.086
O   7.775   9.386   3.380
O   7.775   9.386   16.086
O   7.775   24.028   3.380
O   7.775   24.028   16.086
O   22.417   9.386   3.380
O   22.417   9.386   16.086
O   22.417   24.028   3.380
O   22.417   24.028   16.086
O   12.724   12.138   5.235
O   12.724   12.138   17.941
O   12.724   26.780   5.235
O   12.724   26.780   17.941
O   27.366   12.138   5.235
O   27.366   12.138   17.941
O   27.366   26.780   5.235
O   27.366   26.780   17.941
O   1.918   2.504   5.235
O   1.918   2.504   17.941
O   1.918   17.146   5.235
O   1.918   17.146   17.941
O   16.560   2.504   5.235
O   16.560   2.504   17.941
O   16.560   17.146   5.235
O   16.560   17.146   17.941
O   2.504   12.724   7.471
O   2.504   12.724   20.177
O   2.504   27.366   7.471
O   2.504   27.366   20.177
O   17.146   12.724   7.471
O   17.146   12.724   20.177
O   17.146   27.366   7.471
O   17.146   27.366   20.177
O   12.138   1.918   7.471
O   12.138   1.918   20.177
O   12.138   16.560   7.471
O   12.138   16.560   20.177
O   26.780   1.918   7.471
O   26.780   1.918   20.177
O   26.780   16.560   7.471
O   26.780   16.560   20.177
O   5.403   4.817   11.588
O   5.403   4.817   24.294
O   5.403   19.459   11.588
O   5.403   19.459   24.294
O   20.045   4.817   11.588
O   20.045   4.817   24.294
O   20.045   19.459   11.588
O   20.045   19.459   24.294
O   9.239   9.825   11.588
O   9.239   9.825   24.294
O   9.239   24.467   11.588
O   9.239   24.467   24.294
O   23.881   9.825   11.588
O   23.881   9.825   24.294
O   23.881   24.467   11.588
O   23.881   24.467   24.294
O   9.825   5.403   1.118
O   9.825   5.403   13.824
O   9.825   20.045   1.118
O   9.825   20.045   13.824
O   24.467   5.403   1.118
O   24.467   5.403   13.824
O   24.467   20.045   1.118
O   24.467   20.045   13.824
O   4.817   9.239   1.118
O   4.817   9.239   13.824
O   4.817   23.881   1.118
O   4.817   23.881   13.824
O   19.459   9.239   1.118
O   19.459   9.239   13.824
O   19.459   23.881   1.118
O   19.459   23.881   13.824
O   11.596   2.079   4.866
O   11.596   2.079   17.572
O   11.596   16.721   4.866
O   11.596   16.721   17.572
O   26.238   2.079   4.866
O   26.238   2.079   17.572
O   26.238   16.721   4.866
O   26.238   16.721   17.572
O   3.046   12.563   4.866
O   3.046   12.563   17.572
O   3.046   27.205   4.866
O   3.046   27.205   17.572
O   17.688   12.563   4.866
O   17.688   12.563   17.572
O   17.688   27.205   4.866
O   17.688   27.205   17.572
O   12.563   11.596   7.840
O   12.563   11.596   20.546
O   12.563   26.238   7.840
O   12.563   26.238   20.546
O   27.205   11.596   7.840
O   27.205   11.596   20.546
O   27.205   26.238   7.840
O   27.205   26.238   20.546
O   2.079   3.046   7.840
O   2.079   3.046   20.546
O   2.079   17.688   7.840
O   2.079   17.688   20.546
O   16.721   3.046   7.840
O   16.721   3.046   20.546
O   16.721   17.688   7.840
O   16.721   17.688   20.546
O   4.275   9.400   11.219
O   4.275   9.400   23.925
O   4.275   24.042   11.219
O   4.275   24.042   23.925
O   18.917   9.400   11.219
O   18.917   9.400   23.925
O   18.917   24.042   11.219
O   18.917   24.042   23.925
O   10.367   5.242   11.219
O   10.367   5.242   23.925
O   10.367   19.884   11.219
O   10.367   19.884   23.925
O   25.009   5.242   11.219
O   25.009   5.242   23.925
O   25.009   19.884   11.219
O   25.009   19.884   23.925
O   5.242   4.275   1.487
O   5.242   4.275   14.193
O   5.242   18.917   1.487
O   5.242   18.917   14.193
O   19.884   4.275   1.487
O   19.884   4.275   14.193
O   19.884   18.917   1.487
O   19.884   18.917   14.193
O   9.400   10.367   1.487
O   9.400   10.367   14.193
O   9.400   25.009   1.487
O   9.400   25.009   14.193
O   24.042   10.367   1.487
O   24.042   10.367   14.193
O   24.042   25.009   1.487
O   24.042   25.009   14.193
O   10.996   14.159   4.905
O   10.996   14.159   17.611
O   10.996   28.801   4.905
O   10.996   28.801   17.611
O   25.638   14.159   4.905
O   25.638   14.159   17.611
O   25.638   28.801   4.905
O   25.638   28.801   17.611
O   3.646   0.483   4.905
O   3.646   0.483   17.611
O   3.646   15.125   4.905
O   3.646   15.125   17.611
O   18.288   0.483   4.905
O   18.288   0.483   17.611
O   18.288   15.125   4.905
O   18.288   15.125   17.611
O   0.483   10.996   7.801
O   0.483   10.996   20.507
O   0.483   25.638   7.801
O   0.483   25.638   20.507
O   15.125   10.996   7.801
O   15.125   10.996   20.507
O   15.125   25.638   7.801
O   15.125   25.638   20.507
O   14.159   3.646   7.801
O   14.159   3.646   20.507
O   14.159   18.288   7.801
O   14.159   18.288   20.507
O   28.801   3.646   7.801
O   28.801   3.646   20.507
O   28.801   18.288   7.801
O   28.801   18.288   20.507
O   3.675   6.838   11.258
O   3.675   6.838   23.964
O   3.675   21.480   11.258
O   3.675   21.480   23.964
O   18.317   6.838   11.258
O   18.317   6.838   23.964
O   18.317   21.480   11.258
O   18.317   21.480   23.964
O   10.967   7.804   11.258
O   10.967   7.804   23.964
O   10.967   22.446   11.258
O   10.967   22.446   23.964
O   25.609   7.804   11.258
O   25.609   7.804   23.964
O   25.609   22.446   11.258
O   25.609   22.446   23.964
O   7.804   3.675   1.448
O   7.804   3.675   14.154
O   7.804   18.317   1.448
O   7.804   18.317   14.154
O   22.446   3.675   1.448
O   22.446   3.675   14.154
O   22.446   18.317   1.448
O   22.446   18.317   14.154
O   6.838   10.967   1.448
O   6.838   10.967   14.154
O   6.838   25.609   1.448
O   6.838   25.609   14.154
O   21.480   10.967   1.448
O   21.480   10.967   14.154
O   21.480   25.609   1.448
O   21.480   25.609   14.154
O   13.339   0.322   5.425
O   13.339   0.322   18.131
O   13.339   14.964   5.425
O   13.339   14.964   18.131
O   27.981   0.322   5.425
O   27.981   0.322   18.131
O   27.981   14.964   5.425
O   27.981   14.964   18.131
O   1.303   14.320   5.425
O   1.303   14.320   18.131
O   1.303   28.962   5.425
O   1.303   28.962   18.131
O   15.945   14.320   5.425
O   15.945   14.320   18.131
O   15.945   28.962   5.425
O   15.945   28.962   18.131
O   14.320   13.339   7.281
O   14.320   13.339   19.987
O   14.320   27.981   7.281
O   14.320   27.981   19.987
O   28.962   13.339   7.281
O   28.962   13.339   19.987
O   28.962   27.981   7.281
O   28.962   27.981   19.987
O   0.322   1.303   7.281
O   0.322   1.303   19.987
O   0.322   15.945   7.281
O   0.322   15.945   19.987
O   14.964   1.303   7.281
O   14.964   1.303   19.987
O   14.964   15.945   7.281
O   14.964   15.945   19.987
O   6.018   7.643   11.778
O   6.018   7.643   24.484
O   6.018   22.285   11.778
O   6.018   22.285   24.484
O   20.660   7.643   11.778
O   20.660   7.643   24.484
O   20.660   22.285   11.778
O   20.660   22.285   24.484
O   8.624   6.999   11.778
O   8.624   6.999   24.484
O   8.624   21.641   11.778
O   8.624   21.641   24.484
O   23.266   6.999   11.778
O   23.266   6.999   24.484
O   23.266   21.641   11.778
O   23.266   21.641   24.484
O   6.999   6.018   0.928
O   6.999   6.018   13.634
O   6.999   20.660   0.928
O   6.999   20.660   13.634
O   21.641   6.018   0.928
O   21.641   6.018   13.634
O   21.641   20.660   0.928
O   21.641   20.660   13.634
O   7.643   8.624   0.928
O   7.643   8.624   13.634
O   7.643   23.266   0.928
O   7.643   23.266   13.634
O   22.285   8.624   0.928
O   22.285   8.624   13.634
O   22.285   23.266   0.928
O   22.285   23.266   13.634
N   11.611   6.296   6.328
N   11.611   6.296   19.034
N   11.611   20.938   6.328
N   11.611   20.938   19.034
N   26.253   6.296   6.328
N   26.253   6.296   19.034
N   26.253   20.938   6.328
N   26.253   20.938   19.034
N   3.031   8.346   6.328
N   3.031   8.346   19.034
N   3.031   22.988   6.328
N   3.031   22.988   19.034
N   17.673   8.346   6.328
N   17.673   8.346   19.034
N   17.673   22.988   6.328
N   17.673   22.988   19.034
N   8.346   11.611   6.378
N   8.346   11.611   19.084
N   8.346   26.253   6.378
N   8.346   26.253   19.084
N   22.988   11.611   6.378
N   22.988   11.611   19.084
N   22.988   26.253   6.378
N   22.988   26.253   19.084
N   6.296   3.031   6.378
N   6.296   3.031   19.084
N   6.296   17.673   6.378
N   6.296   17.673   19.084
N   20.938   3.031   6.378
N   20.938   3.031   19.084
N   20.938   17.673   6.378
N   20.938   17.673   19.084
N   4.290   13.617   12.681
N   4.290   13.617   25.387
N   4.290   28.259   12.681
N   4.290   28.259   25.387
N   18.932   13.617   12.681
N   18.932   13.617   25.387
N   18.932   28.259   12.681
N   18.932   28.259   25.387
N   10.352   1.025   12.681
N   10.352   1.025   25.387
N   10.352   15.667   12.681
N   10.352   15.667   25.387
N   24.994   1.025   12.681
N   24.994   1.025   25.387
N   24.994   15.667   12.681
N   24.994   15.667   25.387
N   1.025   4.290   0.025
N   1.025   4.290   12.731
N   1.025   18.932   0.025
N   1.025   18.932   12.731
N   15.667   4.290   0.025
N   15.667   4.290   12.731
N   15.667   18.932   0.025
N   15.667   18.932   12.731
N   13.617   10.352   0.025
N   13.617   10.352   12.731
N   13.617   24.994   0.025
N   13.617   24.994   12.731
N   28.259   10.352   0.025
N   28.259   10.352   12.731
N   28.259   24.994   0.025
N   28.259   24.994   12.731
C   10.586   7.131   6.226
C   10.586   7.131   18.932
C   10.586   21.773   6.226
C   10.586   21.773   18.932
C   25.228   7.131   6.226
C   25.228   7.131   18.932
C   25.228   21.773   6.226
C   25.228   21.773   18.932
C   4.056   7.511   6.226
C   4.056   7.511   18.932
C   4.056   22.153   6.226
C   4.056   22.153   18.932
C   18.698   7.511   6.226
C   18.698   7.511   18.932
C   18.698   22.153   6.226
C   18.698   22.153   18.932
C   7.511   10.586   6.480
C   7.511   10.586   19.186
C   7.511   25.228   6.480
C   7.511   25.228   19.186
C   22.153   10.586   6.480
C   22.153   10.586   19.186
C   22.153   25.228   6.480
C   22.153   25.228   19.186
C   7.131   4.056   6.480
C   7.131   4.056   19.186
C   7.131   18.698   6.480
C   7.131   18.698   19.186
C   21.773   4.056   6.480
C   21.773   4.056   19.186
C   21.773   18.698   6.480
C   21.773   18.698   19.186
C   3.265   14.452   12.579
C   3.265   14.452   25.285
C   3.265   29.094   12.579
C   3.265   29.094   25.285
C   17.907   14.452   12.579
C   17.907   14.452   25.285
C   17.907   29.094   12.579
C   17.907   29.094   25.285
C   11.377   0.190   12.579
C   11.377   0.190   25.285
C   11.377   14.832   12.579
C   11.377   14.832   25.285
C   26.019   0.190   12.579
C   26.019   0.190   25.285
C   26.019   14.832   12.579
C   26.019   14.832   25.285
C   0.190   3.265   0.127
C   0.190   3.265   12.833
C   0.190   17.907   0.127
C   0.190   17.907   12.833
C   14.832   3.265   0.127
C   14.832   3.265   12.833
C   14.832   17.907   0.127
C   14.832   17.907   12.833
C   14.452   11.377   0.127
C   14.452   11.377   12.833
C   14.452   26.019   0.127
C   14.452   26.019   12.833
C   29.094   11.377   0.127
C   29.094   11.377   12.833
C   29.094   26.019   0.127
C   29.094   26.019   12.833
C   11.172   4.861   6.391
C   11.172   4.861   19.097
C   11.172   19.503   6.391
C   11.172   19.503   19.097
C   25.814   4.861   6.391
C   25.814   4.861   19.097
C   25.814   19.503   6.391
C   25.814   19.503   19.097
C   3.470   9.781   6.391
C   3.470   9.781   19.097
C   3.470   24.423   6.391
C   3.470   24.423   19.097
C   18.112   9.781   6.391
C   18.112   9.781   19.097
C   18.112   24.423   6.391
C   18.112   24.423   19.097
C   9.781   11.172   6.315
C   9.781   11.172   19.021
C   9.781   25.814   6.315
C   9.781   25.814   19.021
C   24.423   11.172   6.315
C   24.423   11.172   19.021
C   24.423   25.814   6.315
C   24.423   25.814   19.021
C   4.861   3.470   6.315
C   4.861   3.470   19.021
C   4.861   18.112   6.315
C   4.861   18.112   19.021
C   19.503   3.470   6.315
C   19.503   3.470   19.021
C   19.503   18.112   6.315
C   19.503   18.112   19.021
C   3.851   12.182   0.038
C   3.851   12.182   12.744
C   3.851   26.824   0.038
C   3.851   26.824   12.744
C   18.493   12.182   0.038
C   18.493   12.182   12.744
C   18.493   26.824   0.038
C   18.493   26.824   12.744
C   10.791   2.460   0.038
C   10.791   2.460   12.744
C   10.791   17.102   0.038
C   10.791   17.102   12.744
C   25.433   2.460   0.038
C   25.433   2.460   12.744
C   25.433   17.102   0.038
C   25.433   17.102   12.744
C   2.460   3.851   12.668
C   2.460   3.851   25.374
C   2.460   18.493   12.668
C   2.460   18.493   25.374
C   17.102   3.851   12.668
C   17.102   3.851   25.374
C   17.102   18.493   12.668
C   17.102   18.493   25.374
C   12.182   10.791   12.668
C   12.182   10.791   25.374
C   12.182   25.433   12.668
C   12.182   25.433   25.374
C   26.824   10.791   12.668
C   26.824   10.791   25.374
C   26.824   25.433   12.668
C   26.824   25.433   25.374
C   12.387   6.428   5.082
C   12.387   6.428   17.788
C   12.387   21.070   5.082
C   12.387   21.070   17.788
C   27.029   6.428   5.082
C   27.029   6.428   17.788
C   27.029   21.070   5.082
C   27.029   21.070   17.788
C   2.255   8.214   5.082
C   2.255   8.214   17.788
C   2.255   22.856   5.082
C   2.255   22.856   17.788
C   16.897   8.214   5.082
C   16.897   8.214   17.788
C   16.897   22.856   5.082
C   16.897   22.856   17.788
C   8.214   12.387   7.624
C   8.214   12.387   20.330
C   8.214   27.029   7.624
C   8.214   27.029   20.330
C   22.856   12.387   7.624
C   22.856   12.387   20.330
C   22.856   27.029   7.624
C   22.856   27.029   20.330
C   6.428   2.255   7.624
C   6.428   2.255   20.330
C   6.428   16.897   7.624
C   6.428   16.897   20.330
C   21.070   2.255   7.624
C   21.070   2.255   20.330
C   21.070   16.897   7.624
C   21.070   16.897   20.330
C   5.066   13.749   11.435
C   5.066   13.749   24.141
C   5.066   28.391   11.435
C   5.066   28.391   24.141
C   19.708   13.749   11.435
C   19.708   13.749   24.141
C   19.708   28.391   11.435
C   19.708   28.391   24.141
C   9.576   0.893   11.435
C   9.576   0.893   24.141
C   9.576   15.535   11.435
C   9.576   15.535   24.141
C   24.218   0.893   11.435
C   24.218   0.893   24.141
C   24.218   15.535   11.435
C   24.218   15.535   24.141
C   0.893   5.066   1.271
C   0.893   5.066   13.977
C   0.893   19.708   1.271
C   0.893   19.708   13.977
C   15.535   5.066   1.271
C   15.535   5.066   13.977
C   15.535   19.708   1.271
C   15.535   19.708   13.977
C   13.749   9.576   1.271
C   13.749   9.576   13.977
C   13.749   24.218   1.271
C   13.749   24.218   13.977
C   28.391   9.576   1.271
C   28.391   9.576   13.977
C   28.391   24.218   1.271
C   28.391   24.218   13.977
C   12.607   6.633   7.484
C   12.607   6.633   20.190
C   12.607   21.275   7.484
C   12.607   21.275   20.190
C   27.249   6.633   7.484
C   27.249   6.633   20.190
C   27.249   21.275   7.484
C   27.249   21.275   20.190
C   2.035   8.009   7.484
C   2.035   8.009   20.190
C   2.035   22.651   7.484
C   2.035   22.651   20.190
C   16.677   8.009   7.484
C   16.677   8.009   20.190
C   16.677   22.651   7.484
C   16.677   22.651   20.190
C   8.009   12.607   5.222
C   8.009   12.607   17.928
C   8.009   27.249   5.222
C   8.009   27.249   17.928
C   22.651   12.607   5.222
C   22.651   12.607   17.928
C   22.651   27.249   5.222
C   22.651   27.249   17.928
C   6.633   2.035   5.222
C   6.633   2.035   17.928
C   6.633   16.677   5.222
C   6.633   16.677   17.928
C   21.275   2.035   5.222
C   21.275   2.035   17.928
C   21.275   16.677   5.222
C   21.275   16.677   17.928
C   5.286   13.954   1.131
C   5.286   13.954   13.837
C   5.286   28.596   1.131
C   5.286   28.596   13.837
C   19.928   13.954   1.131
C   19.928   13.954   13.837
C   19.928   28.596   1.131
C   19.928   28.596   13.837
C   9.356   0.688   1.131
C   9.356   0.688   13.837
C   9.356   15.330   1.131
C   9.356   15.330   13.837
C   23.998   0.688   1.131
C   23.998   0.688   13.837
C   23.998   15.330   1.131
C   23.998   15.330   13.837
C   0.688   5.286   11.575
C   0.688   5.286   24.281
C   0.688   19.928   11.575
C   0.688   19.928   24.281
C   15.330   5.286   11.575
C   15.330   5.286   24.281
C   15.330   19.928   11.575
C   15.330   19.928   24.281
C   13.954   9.356   11.575
C   13.954   9.356   24.281
C   13.954   23.998   11.575
C   13.954   23.998   24.281
C   28.596   9.356   11.575
C   28.596   9.356   24.281
C   28.596   23.998   11.575
C   28.596   23.998   24.281
