448

Fe   1.049   1.049   1.049
Fe   1.049   1.049   9.445
Fe   1.049   9.445   1.049
Fe   1.049   9.445   9.445
Fe   9.445   1.049   1.049
Fe   9.445   1.049   9.445
Fe   9.445   9.445   1.049
Fe   9.445   9.445   9.445
Fe   7.346   3.148   5.247
Fe   7.346   3.148   13.642
Fe   7.346   11.543   5.247
Fe   7.346   11.543   13.642
Fe   15.741   3.148   5.247
Fe   15.741   3.148   13.642
Fe   15.741   11.543   5.247
Fe   15.741   11.543   13.642
Fe   3.148   5.247   7.346
Fe   3.148   5.247   15.741
Fe   3.148   13.642   7.346
Fe   3.148   13.642   15.741
Fe   11.543   5.247   7.346
Fe   11.543   5.247   15.741
Fe   11.543   13.642   7.346
Fe   11.543   13.642   15.741
Fe   5.247   7.346   3.148
Fe   5.247   7.346   11.543
Fe   5.247   15.741   3.148
Fe   5.247   15.741   11.543
Fe   13.642   7.346   3.148
Fe   13.642   7.346   11.543
Fe   13.642   15.741   3.148
Fe   13.642   15.741   11.543
Fe   3.148   7.346   5.247
Fe   3.148   7.346   13.642
Fe   3.148   15.741   5.247
Fe   3.148   15.741   13.642
Fe   11.543   7.346   5.247
Fe   11.543   7.346   13.642
Fe   11.543   15.741   5.247
Fe   11.543   15.741   13.642
Fe   7.346   5.247   3.148
Fe   7.346   5.247   11.543
Fe   7.346   13.642   3.148
Fe   7.346   13.642   11.543
Fe   15.741   5.247   3.148
Fe   15.741   5.247   11.543
Fe   15.741   13.642   3.148
Fe   15.741   13.642   11.543
Fe   5.247   3.148   7.346
Fe   5.247   3.148   15.741
Fe   5.247   11.543   7.346
Fe   5.247   11.543   15.741
Fe   13.642   3.148   7.346
Fe   13.642   3.148   15.741
Fe   13.642   11.543   7.346
Fe   13.642   11.543   15.741
Fe   1.049   5.247   5.247
Fe   1.049   5.247   13.642
Fe   1.049   13.642   5.247
Fe   1.049   13.642   13.642
Fe   9.445   5.247   5.247
Fe   9.445   5.247   13.642
Fe   9.445   13.642   5.247
Fe   9.445   13.642   13.642
Fe   7.346   7.346   1.049
Fe   7.346   7.346   9.445
Fe   7.346   15.741   1.049
Fe   7.346   15.741   9.445
Fe   15.741   7.346   1.049
Fe   15.741   7.346   9.445
Fe   15.741   15.741   1.049
Fe   15.741   15.741   9.445
Fe   3.148   1.049   3.148
Fe   3.148   1.049   11.543
Fe   3.148   9.445   3.148
Fe   3.148   9.445   11.543
Fe   11.543   1.049   3.148
Fe   11.543   1.049   11.543
Fe   11.543   9.445   3.148
Fe   11.543   9.445   11.543
Fe   3.148   3.148   1.049
Fe   3.148   3.148   9.445
Fe   3.148   11.543   1.049
Fe   3.148   11.543   9.445
Fe   11.543   3.148   1.049
Fe   11.543   3.148   9.445
Fe   11.543   11.543   1.049
Fe   11.543   11.543   9.445
Fe   7.346   1.049   7.346
Fe   7.346   1.049   15.741
Fe   7.346   9.445   7.346
Fe   7.346   9.445   15.741
Fe   15.741   1.049   7.346
Fe   15.741   1.049   15.741
Fe   15.741   9.445   7.346
Fe   15.741   9.445   15.741
Fe   5.247   1.049   5.247
Fe   5.247   1.049   13.642
Fe   5.247   9.445   5.247
Fe   5.247   9.445   13.642
Fe   13.642   1.049   5.247
Fe   13.642   1.049   13.642
Fe   13.642   9.445   5.247
Fe   13.642   9.445   13.642
Fe   1.049   7.346   7.346
Fe   1.049   7.346   15.741
Fe   1.049   15.741   7.346
Fe   1.049   15.741   15.741
Fe   9.445   7.346   7.346
Fe   9.445   7.346   15.741
Fe   9.445   15.741   7.346
Fe   9.445   15.741   15.741
Fe   1.049   3.148   3.148
Fe   1.049   3.148   11.543
Fe   1.049   11.543   3.148
Fe   1.049   11.543   11.543
Fe   9.445   3.148   3.148
Fe   9.445   3.148   11.543
Fe   9.445   11.543   3.148
Fe   9.445   11.543   11.543
Fe   5.247   5.247   1.049
Fe   5.247   5.247   9.445
Fe   5.247   13.642   1.049
Fe   5.247   13.642   9.445
Fe   13.642   5.247   1.049
Fe   13.642   5.247   9.445
Fe   13.642   13.642   1.049
Fe   13.642   13.642   9.445
Fe   4.198   4.198   4.198
Fe   4.198   4.198   12.593
Fe   4.198   12.593   4.198
Fe   4.198   12.593   12.593
Fe   12.593   4.198   4.198
Fe   12.593   4.198   12.593
Fe   12.593   12.593   4.198
Fe   12.593   12.593   12.593
Fe   4.198   0.000   0.000
Fe   4.198   0.000   8.395
Fe   4.198   8.395   0.000
Fe   4.198   8.395   8.395
Fe   12.593   0.000   0.000
Fe   12.593   0.000   8.395
Fe   12.593   8.395   0.000
Fe   12.593   8.395   8.395
Fe   0.000   0.000   4.198
Fe   0.000   0.000   12.593
Fe   0.000   8.395   4.198
Fe   0.000   8.395   12.593
Fe   8.395   0.000   4.198
Fe   8.395   0.000   12.593
Fe   8.395   8.395   4.198
Fe   8.395   8.395   12.593
Fe   0.000   4.198   0.000
Fe   0.000   4.198   8.395
Fe   0.000   12.593   0.000
Fe   0.000   12.593   8.395
Fe   8.395   4.198   0.000
Fe   8.395   4.198   8.395
Fe   8.395   12.593   0.000
Fe   8.395   12.593   8.395
Fe   2.099   6.296   2.099
Fe   2.099   6.296   10.494
Fe   2.099   14.692   2.099
Fe   2.099   14.692   10.494
Fe   10.494   6.296   2.099
Fe   10.494   6.296   10.494
Fe   10.494   14.692   2.099
Fe   10.494   14.692   10.494
Fe   6.296   6.296   6.296
Fe   6.296   6.296   14.692
Fe   6.296   14.692   6.296
Fe   6.296   14.692   14.692
Fe   14.692   6.296   6.296
Fe   14.692   6.296   14.692
Fe   14.692   14.692   6.296
Fe   14.692   14.692   14.692
Fe   6.296   2.099   2.099
Fe   6.296   2.099   10.494
Fe   6.296   10.494   2.099
Fe   6.296   10.494   10.494
Fe   14.692   2.099   2.099
Fe   14.692   2.099   10.494
Fe   14.692   10.494   2.099
Fe   14.692   10.494   10.494
Fe   2.099   2.099   6.296
Fe   2.099   2.099   14.692
Fe   2.099   10.494   6.296
Fe   2.099   10.494   14.692
Fe   10.494   2.099   6.296
Fe   10.494   2.099   14.692
Fe   10.494   10.494   6.296
Fe   10.494   10.494   14.692
O   2.137   2.137   2.137
O   2.137   2.137   10.532
O   2.137   10.532   2.137
O   2.137   10.532   10.532
O   10.532   2.137   2.137
O   10.532   2.137   10.532
O   10.532   10.532   2.137
O   10.532   10.532   10.532
O   6.259   2.061   6.334
O   6.259   2.061   14.729
O   6.259   10.456   6.334
O   6.259   10.456   14.729
O   14.654   2.061   6.334
O   14.654   2.061   14.729
O   14.654   10.456   6.334
O   14.654   10.456   14.729
O   2.061   6.334   6.259
O   2.061   6.334   14.654
O   2.061   14.729   6.259
O   2.061   14.729   14.654
O   10.456   6.334   6.259
O   10.456   6.334   14.654
O   10.456   14.729   6.259
O   10.456   14.729   14.654
O   6.334   6.259   2.061
O   6.334   6.259   10.456
O   6.334   14.654   2.061
O   6.334   14.654   10.456
O   14.729   6.259   2.061
O   14.729   6.259   10.456
O   14.729   14.654   2.061
O   14.729   14.654   10.456
O   0.038   4.235   4.160
O   0.038   4.235   12.555
O   0.038   12.631   4.160
O   0.038   12.631   12.555
O   8.433   4.235   4.160
O   8.433   4.235   12.555
O   8.433   12.631   4.160
O   8.433   12.631   12.555
O   8.357   8.357   8.357
O   8.357   8.357   16.753
O   8.357   16.753   8.357
O   8.357   16.753   16.753
O   16.753   8.357   8.357
O   16.753   8.357   16.753
O   16.753   16.753   8.357
O   16.753   16.753   16.753
O   4.235   4.160   0.038
O   4.235   4.160   8.433
O   4.235   12.555   0.038
O   4.235   12.555   8.433
O   12.631   4.160   0.038
O   12.631   4.160   8.433
O   12.631   12.555   0.038
O   12.631   12.555   8.433
O   4.160   0.038   4.235
O   4.160   0.038   12.631
O   4.160   8.433   4.235
O   4.160   8.433   12.631
O   12.555   0.038   4.235
O   12.555   0.038   12.631
O   12.555   8.433   4.235
O   12.555   8.433   12.631
O   4.235   0.038   4.160
O   4.235   0.038   12.555
O   4.235   8.433   4.160
O   4.235   8.433   12.555
O   12.631   0.038   4.160
O   12.631   0.038   12.555
O   12.631   8.433   4.160
O   12.631   8.433   12.555
O   0.038   4.160   4.235
O   0.038   4.160   12.631
O   0.038   12.555   4.235
O   0.038   12.555   12.631
O   8.433   4.160   4.235
O   8.433   4.160   12.631
O   8.433   12.555   4.235
O   8.433   12.555   12.631
O   4.160   4.235   0.038
O   4.160   4.235   8.433
O   4.160   12.631   0.038
O   4.160   12.631   8.433
O   12.555   4.235   0.038
O   12.555   4.235   8.433
O   12.555   12.631   0.038
O   12.555   12.631   8.433
O   2.061   6.259   6.334
O   2.061   6.259   14.729
O   2.061   14.654   6.334
O   2.061   14.654   14.729
O   10.456   6.259   6.334
O   10.456   6.259   14.729
O   10.456   14.654   6.334
O   10.456   14.654   14.729
O   6.259   6.334   2.061
O   6.259   6.334   10.456
O   6.259   14.729   2.061
O   6.259   14.729   10.456
O   14.654   6.334   2.061
O   14.654   6.334   10.456
O   14.654   14.729   2.061
O   14.654   14.729   10.456
O   6.334   2.061   6.259
O   6.334   2.061   14.654
O   6.334   10.456   6.259
O   6.334   10.456   14.654
O   14.729   2.061   6.259
O   14.729   2.061   14.654
O   14.729   10.456   6.259
O   14.729   10.456   14.654
O   2.137   6.334   6.334
O   2.137   6.334   14.729
O   2.137   14.729   6.334
O   2.137   14.729   14.729
O   10.532   6.334   6.334
O   10.532   6.334   14.729
O   10.532   14.729   6.334
O   10.532   14.729   14.729
O   6.259   6.259   2.137
O   6.259   6.259   10.532
O   6.259   14.654   2.137
O   6.259   14.654   10.532
O   14.654   6.259   2.137
O   14.654   6.259   10.532
O   14.654   14.654   2.137
O   14.654   14.654   10.532
O   2.061   2.137   2.061
O   2.061   2.137   10.456
O   2.061   10.532   2.061
O   2.061   10.532   10.456
O   10.456   2.137   2.061
O   10.456   2.137   10.456
O   10.456   10.532   2.061
O   10.456   10.532   10.456
O   0.038   0.038   8.357
O   0.038   0.038   16.753
O   0.038   8.433   8.357
O   0.038   8.433   16.753
O   8.433   0.038   8.357
O   8.433   0.038   16.753
O   8.433   8.433   8.357
O   8.433   8.433   16.753
O   8.357   4.160   4.160
O   8.357   4.160   12.555
O   8.357   12.555   4.160
O   8.357   12.555   12.555
O   16.753   4.160   4.160
O   16.753   4.160   12.555
O   16.753   12.555   4.160
O   16.753   12.555   12.555
O   4.235   8.357   4.235
O   4.235   8.357   12.631
O   4.235   16.753   4.235
O   4.235   16.753   12.631
O   12.631   8.357   4.235
O   12.631   8.357   12.631
O   12.631   16.753   4.235
O   12.631   16.753   12.631
O   4.235   4.235   8.357
O   4.235   4.235   16.753
O   4.235   12.631   8.357
O   4.235   12.631   16.753
O   12.631   4.235   8.357
O   12.631   4.235   16.753
O   12.631   12.631   8.357
O   12.631   12.631   16.753
O   0.038   8.357   0.038
O   0.038   8.357   8.433
O   0.038   16.753   0.038
O   0.038   16.753   8.433
O   8.433   8.357   0.038
O   8.433   8.357   8.433
O   8.433   16.753   0.038
O   8.433   16.753   8.433
O   2.061   2.061   2.137
O   2.061   2.061   10.532
O   2.061   10.456   2.137
O   2.061   10.456   10.532
O   10.456   2.061   2.137
O   10.456   2.061   10.532
O   10.456   10.456   2.137
O   10.456   10.456   10.532
O   6.259   2.137   6.259
O   6.259   2.137   14.654
O   6.259   10.532   6.259
O   6.259   10.532   14.654
O   14.654   2.137   6.259
O   14.654   2.137   14.654
O   14.654   10.532   6.259
O   14.654   10.532   14.654
O   6.334   2.137   6.334
O   6.334   2.137   14.729
O   6.334   10.532   6.334
O   6.334   10.532   14.729
O   14.729   2.137   6.334
O   14.729   2.137   14.729
O   14.729   10.532   6.334
O   14.729   10.532   14.729
O   2.137   6.259   6.259
O   2.137   6.259   14.654
O   2.137   14.654   6.259
O   2.137   14.654   14.654
O   10.532   6.259   6.259
O   10.532   6.259   14.654
O   10.532   14.654   6.259
O   10.532   14.654   14.654
O   4.160   8.357   4.160
O   4.160   8.357   12.555
O   4.160   16.753   4.160
O   4.160   16.753   12.555
O   12.555   8.357   4.160
O   12.555   8.357   12.555
O   12.555   16.753   4.160
O   12.555   16.753   12.555
O   8.357   0.038   0.038
O   8.357   0.038   8.433
O   8.357   8.433   0.038
O   8.357   8.433   8.433
O   16.753   0.038   0.038
O   16.753   0.038   8.433
O   16.753   8.433   0.038
O   16.753   8.433   8.433
O   8.357   4.235   4.235
O   8.357   4.235   12.631
O   8.357   12.631   4.235
O   8.357   12.631   12.631
O   16.753   4.235   4.235
O   16.753   4.235   12.631
O   16.753   12.631   4.235
O   16.753   12.631   12.631
O   2.137   2.061   2.061
O   2.137   2.061   10.456
O   2.137   10.456   2.061
O   2.137   10.456   10.456
O   10.532   2.061   2.061
O   10.532   2.061   10.456
O   10.532   10.456   2.061
O   10.532   10.456   10.456
O   6.334   6.334   2.137
O   6.334   6.334   10.532
O   6.334   14.729   2.137
O   6.334   14.729   10.532
O   14.729   6.334   2.137
O   14.729   6.334   10.532
O   14.729   14.729   2.137
O   14.729   14.729   10.532
O   4.160   4.160   8.357
O   4.160   4.160   16.753
O   4.160   12.555   8.357
O   4.160   12.555   16.753
O   12.555   4.160   8.357
O   12.555   4.160   16.753
O   12.555   12.555   8.357
O   12.555   12.555   16.753
